 Reference value :  1.05000e+00 Reference value :  1.45000e+00
No. of Data Rows : 1806

Circuit: *model = BSIMSOI (DD)

Doing analysis at TEMP = 300.150000 and TNOM = 300.150000
Warning: Pd = 0 is less than W.
Warning: Ps = 0 is less than W.
                             *model = BSIMSOI (DD)
--------------------------------------------------------------------------------
Index   v-sweep         v(g)            vs#branch       
--------------------------------------------------------------------------------
0	0.000000e+00	5.000000e-01	-2.914133e-21	
1	1.000000e-02	5.000000e-01	3.628821e-06	
2	2.000000e-02	5.000000e-01	6.866714e-06	
3	3.000000e-02	5.000000e-01	9.721321e-06	
4	4.000000e-02	5.000000e-01	1.220246e-05	
5	5.000000e-02	5.000000e-01	1.432317e-05	
6	6.000000e-02	5.000000e-01	1.610108e-05	
7	7.000000e-02	5.000000e-01	1.755994e-05	
8	8.000000e-02	5.000000e-01	1.873090e-05	
9	9.000000e-02	5.000000e-01	1.965237e-05	
10	1.000000e-01	5.000000e-01	2.036791e-05	
11	1.100000e-01	5.000000e-01	2.092197e-05	
12	1.200000e-01	5.000000e-01	2.135522e-05	
13	1.300000e-01	5.000000e-01	2.170127e-05	
14	1.400000e-01	5.000000e-01	2.198575e-05	
15	1.500000e-01	5.000000e-01	2.222712e-05	
16	1.600000e-01	5.000000e-01	2.243823e-05	
17	1.700000e-01	5.000000e-01	2.262788e-05	
18	1.800000e-01	5.000000e-01	2.280899e-05	
19	1.900000e-01	5.000000e-01	2.297010e-05	
20	2.000000e-01	5.000000e-01	2.312338e-05	
21	2.100000e-01	5.000000e-01	2.327068e-05	
22	2.200000e-01	5.000000e-01	2.341336e-05	
23	2.300000e-01	5.000000e-01	2.355243e-05	
24	2.400000e-01	5.000000e-01	2.368862e-05	
25	2.500000e-01	5.000000e-01	2.382250e-05	
26	2.600000e-01	5.000000e-01	2.395451e-05	
27	2.700000e-01	5.000000e-01	2.408499e-05	
28	2.800000e-01	5.000000e-01	2.421420e-05	
29	2.900000e-01	5.000000e-01	2.434237e-05	
30	3.000000e-01	5.000000e-01	2.446965e-05	
31	3.100000e-01	5.000000e-01	2.459620e-05	
32	3.200000e-01	5.000000e-01	2.472212e-05	
33	3.300000e-01	5.000000e-01	2.484752e-05	
34	3.400000e-01	5.000000e-01	2.497246e-05	
35	3.500000e-01	5.000000e-01	2.509703e-05	
36	3.600000e-01	5.000000e-01	2.522127e-05	
37	3.700000e-01	5.000000e-01	2.534523e-05	
38	3.800000e-01	5.000000e-01	2.546895e-05	
39	3.900000e-01	5.000000e-01	2.559248e-05	
40	4.000000e-01	5.000000e-01	2.571584e-05	
41	4.100000e-01	5.000000e-01	2.583905e-05	
42	4.200000e-01	5.000000e-01	2.596214e-05	
43	4.300000e-01	5.000000e-01	2.608514e-05	
44	4.400000e-01	5.000000e-01	2.620805e-05	
45	4.500000e-01	5.000000e-01	2.633090e-05	
46	4.600000e-01	5.000000e-01	2.645370e-05	
47	4.700000e-01	5.000000e-01	2.657646e-05	
48	4.800000e-01	5.000000e-01	2.669920e-05	
49	4.900000e-01	5.000000e-01	2.682192e-05	
50	5.000000e-01	5.000000e-01	2.694463e-05	
51	5.100000e-01	5.000000e-01	2.706734e-05	
52	5.200000e-01	5.000000e-01	2.719006e-05	
53	5.300000e-01	5.000000e-01	2.731280e-05	
54	5.400000e-01	5.000000e-01	2.743556e-05	

Index   v-sweep         v(g)            vs#branch       
--------------------------------------------------------------------------------
55	5.500000e-01	5.000000e-01	2.755834e-05	
56	5.600000e-01	5.000000e-01	2.768116e-05	
57	5.700000e-01	5.000000e-01	2.780401e-05	
58	5.800000e-01	5.000000e-01	2.792690e-05	
59	5.900000e-01	5.000000e-01	2.804984e-05	
60	6.000000e-01	5.000000e-01	2.817283e-05	
61	6.100000e-01	5.000000e-01	2.829587e-05	
62	6.200000e-01	5.000000e-01	2.841897e-05	
63	6.300000e-01	5.000000e-01	2.854212e-05	
64	6.400000e-01	5.000000e-01	2.866533e-05	
65	6.500000e-01	5.000000e-01	2.878865e-05	
66	6.600000e-01	5.000000e-01	2.891200e-05	
67	6.700000e-01	5.000000e-01	2.903542e-05	
68	6.800000e-01	5.000000e-01	2.915892e-05	
69	6.900000e-01	5.000000e-01	2.928250e-05	
70	7.000000e-01	5.000000e-01	2.940617e-05	
71	7.100000e-01	5.000000e-01	2.952995e-05	
72	7.200000e-01	5.000000e-01	2.965384e-05	
73	7.300000e-01	5.000000e-01	2.977787e-05	
74	7.400000e-01	5.000000e-01	2.990204e-05	
75	7.500000e-01	5.000000e-01	3.002638e-05	
76	7.600000e-01	5.000000e-01	3.015091e-05	
77	7.700000e-01	5.000000e-01	3.027565e-05	
78	7.800000e-01	5.000000e-01	3.040061e-05	
79	7.900000e-01	5.000000e-01	3.052581e-05	
80	8.000000e-01	5.000000e-01	3.065113e-05	
81	8.100000e-01	5.000000e-01	3.077688e-05	
82	8.200000e-01	5.000000e-01	3.090296e-05	
83	8.300000e-01	5.000000e-01	3.102945e-05	
84	8.400000e-01	5.000000e-01	3.115644e-05	
85	8.500000e-01	5.000000e-01	3.128410e-05	
86	8.600000e-01	5.000000e-01	3.141266e-05	
87	8.700000e-01	5.000000e-01	3.154251e-05	
88	8.800000e-01	5.000000e-01	3.167436e-05	
89	8.900000e-01	5.000000e-01	3.180955e-05	
90	9.000000e-01	5.000000e-01	3.195099e-05	
91	9.100000e-01	5.000000e-01	3.210603e-05	
92	9.200000e-01	5.000000e-01	3.233421e-05	
93	9.300000e-01	5.000000e-01	3.268787e-05	
94	9.400000e-01	5.000000e-01	3.315737e-05	
95	9.500000e-01	5.000000e-01	3.364289e-05	
96	9.600000e-01	5.000000e-01	3.411220e-05	
97	9.700000e-01	5.000000e-01	3.456858e-05	
98	9.800000e-01	5.000000e-01	3.503438e-05	
99	9.900000e-01	5.000000e-01	3.553760e-05	
100	1.000000e+00	5.000000e-01	3.615687e-05	
101	1.010000e+00	5.000000e-01	3.686245e-05	
102	1.020000e+00	5.000000e-01	3.770443e-05	
103	1.030000e+00	5.000000e-01	3.868068e-05	
104	1.040000e+00	5.000000e-01	3.976837e-05	
105	1.050000e+00	5.000000e-01	4.090246e-05	
106	1.060000e+00	5.000000e-01	4.214607e-05	
107	1.070000e+00	5.000000e-01	4.343558e-05	
108	1.080000e+00	5.000000e-01	4.476119e-05	
109	1.090000e+00	5.000000e-01	4.611753e-05	
110	1.100000e+00	5.000000e-01	4.750069e-05	
111	1.110000e+00	5.000000e-01	4.890786e-05	
112	1.120000e+00	5.000000e-01	5.035725e-05	

Index   v-sweep         v(g)            vs#branch       
--------------------------------------------------------------------------------
113	1.130000e+00	5.000000e-01	5.183807e-05	
114	1.140000e+00	5.000000e-01	5.334484e-05	
115	1.150000e+00	5.000000e-01	5.487450e-05	
116	1.160000e+00	5.000000e-01	5.642457e-05	
117	1.170000e+00	5.000000e-01	5.799298e-05	
118	1.180000e+00	5.000000e-01	5.957797e-05	
119	1.190000e+00	5.000000e-01	6.117802e-05	
120	1.200000e+00	5.000000e-01	6.279182e-05	
121	1.210000e+00	5.000000e-01	6.441820e-05	
122	1.220000e+00	5.000000e-01	6.605608e-05	
123	1.230000e+00	5.000000e-01	6.770454e-05	
124	1.240000e+00	5.000000e-01	6.936269e-05	
125	1.250000e+00	5.000000e-01	7.102973e-05	
126	1.260000e+00	5.000000e-01	7.270493e-05	
127	1.270000e+00	5.000000e-01	7.438759e-05	
128	1.280000e+00	5.000000e-01	7.607708e-05	
129	1.290000e+00	5.000000e-01	7.777278e-05	
130	1.300000e+00	5.000000e-01	7.947414e-05	
131	1.310000e+00	5.000000e-01	8.118062e-05	
132	1.320000e+00	5.000000e-01	8.289171e-05	
133	1.330000e+00	5.000000e-01	8.460694e-05	
134	1.340000e+00	5.000000e-01	8.632584e-05	
135	1.350000e+00	5.000000e-01	8.804800e-05	
136	1.360000e+00	5.000000e-01	8.977299e-05	
137	1.370000e+00	5.000000e-01	9.150043e-05	
138	1.380000e+00	5.000000e-01	9.322994e-05	
139	1.390000e+00	5.000000e-01	9.496117e-05	
140	1.400000e+00	5.000000e-01	9.669379e-05	
141	1.410000e+00	5.000000e-01	9.842747e-05	
142	1.420000e+00	5.000000e-01	1.001619e-04	
143	1.430000e+00	5.000000e-01	1.018968e-04	
144	1.440000e+00	5.000000e-01	1.036319e-04	
145	1.450000e+00	5.000000e-01	1.053668e-04	
146	1.460000e+00	5.000000e-01	1.071015e-04	
147	1.470000e+00	5.000000e-01	1.088355e-04	
148	1.480000e+00	5.000000e-01	1.105687e-04	
149	1.490000e+00	5.000000e-01	1.123009e-04	
150	1.500000e+00	5.000000e-01	1.140318e-04	
151	1.510000e+00	5.000000e-01	1.157612e-04	
152	1.520000e+00	5.000000e-01	1.174890e-04	
153	1.530000e+00	5.000000e-01	1.192149e-04	
154	1.540000e+00	5.000000e-01	1.209388e-04	
155	1.550000e+00	5.000000e-01	1.226605e-04	
156	1.560000e+00	5.000000e-01	1.243799e-04	
157	1.570000e+00	5.000000e-01	1.260967e-04	
158	1.580000e+00	5.000000e-01	1.278109e-04	
159	1.590000e+00	5.000000e-01	1.295223e-04	
160	1.600000e+00	5.000000e-01	1.312307e-04	
161	1.610000e+00	5.000000e-01	1.329361e-04	
162	1.620000e+00	5.000000e-01	1.346383e-04	
163	1.630000e+00	5.000000e-01	1.363371e-04	
164	1.640000e+00	5.000000e-01	1.380326e-04	
165	1.650000e+00	5.000000e-01	1.397245e-04	
166	1.660000e+00	5.000000e-01	1.414128e-04	
167	1.670000e+00	5.000000e-01	1.430974e-04	
168	1.680000e+00	5.000000e-01	1.447782e-04	
169	1.690000e+00	5.000000e-01	1.464550e-04	
170	1.700000e+00	5.000000e-01	1.481279e-04	

Index   v-sweep         v(g)            vs#branch       
--------------------------------------------------------------------------------
171	1.710000e+00	5.000000e-01	1.497967e-04	
172	1.720000e+00	5.000000e-01	1.514613e-04	
173	1.730000e+00	5.000000e-01	1.531218e-04	
174	1.740000e+00	5.000000e-01	1.547779e-04	
175	1.750000e+00	5.000000e-01	1.564297e-04	
176	1.760000e+00	5.000000e-01	1.580771e-04	
177	1.770000e+00	5.000000e-01	1.597200e-04	
178	1.780000e+00	5.000000e-01	1.613584e-04	
179	1.790000e+00	5.000000e-01	1.629922e-04	
180	1.800000e+00	5.000000e-01	1.646214e-04	
181	1.810000e+00	5.000000e-01	1.662459e-04	
182	1.820000e+00	5.000000e-01	1.678657e-04	
183	1.830000e+00	5.000000e-01	1.694807e-04	
184	1.840000e+00	5.000000e-01	1.710909e-04	
185	1.850000e+00	5.000000e-01	1.726962e-04	
186	1.860000e+00	5.000000e-01	1.742967e-04	
187	1.870000e+00	5.000000e-01	1.758922e-04	
188	1.880000e+00	5.000000e-01	1.774828e-04	
189	1.890000e+00	5.000000e-01	1.790685e-04	
190	1.900000e+00	5.000000e-01	1.806491e-04	
191	1.910000e+00	5.000000e-01	1.822247e-04	
192	1.920000e+00	5.000000e-01	1.837952e-04	
193	1.930000e+00	5.000000e-01	1.853607e-04	
194	1.940000e+00	5.000000e-01	1.869210e-04	
195	1.950000e+00	5.000000e-01	1.884762e-04	
196	1.960000e+00	5.000000e-01	1.900263e-04	
197	1.970000e+00	5.000000e-01	1.915713e-04	
198	1.980000e+00	5.000000e-01	1.931110e-04	
199	1.990000e+00	5.000000e-01	1.946456e-04	
200	2.000000e+00	5.000000e-01	1.961750e-04	
201	2.010000e+00	5.000000e-01	1.976991e-04	
202	2.020000e+00	5.000000e-01	1.992181e-04	
203	2.030000e+00	5.000000e-01	2.007318e-04	
204	2.040000e+00	5.000000e-01	2.022403e-04	
205	2.050000e+00	5.000000e-01	2.037435e-04	
206	2.060000e+00	5.000000e-01	2.052415e-04	
207	2.070000e+00	5.000000e-01	2.067342e-04	
208	2.080000e+00	5.000000e-01	2.082217e-04	
209	2.090000e+00	5.000000e-01	2.097039e-04	
210	2.100000e+00	5.000000e-01	2.111808e-04	
211	2.110000e+00	5.000000e-01	2.126525e-04	
212	2.120000e+00	5.000000e-01	2.141188e-04	
213	2.130000e+00	5.000000e-01	2.155800e-04	
214	2.140000e+00	5.000000e-01	2.170358e-04	
215	2.150000e+00	5.000000e-01	2.184864e-04	
216	2.160000e+00	5.000000e-01	2.199317e-04	
217	2.170000e+00	5.000000e-01	2.213718e-04	
218	2.180000e+00	5.000000e-01	2.228066e-04	
219	2.190000e+00	5.000000e-01	2.242361e-04	
220	2.200000e+00	5.000000e-01	2.256604e-04	
221	2.210000e+00	5.000000e-01	2.270795e-04	
222	2.220000e+00	5.000000e-01	2.284933e-04	
223	2.230000e+00	5.000000e-01	2.299020e-04	
224	2.240000e+00	5.000000e-01	2.313054e-04	
225	2.250000e+00	5.000000e-01	2.327036e-04	
226	2.260000e+00	5.000000e-01	2.340965e-04	
227	2.270000e+00	5.000000e-01	2.354844e-04	
228	2.280000e+00	5.000000e-01	2.368670e-04	

Index   v-sweep         v(g)            vs#branch       
--------------------------------------------------------------------------------
229	2.290000e+00	5.000000e-01	2.382445e-04	
230	2.300000e+00	5.000000e-01	2.396168e-04	
231	2.310000e+00	5.000000e-01	2.409840e-04	
232	2.320000e+00	5.000000e-01	2.423460e-04	
233	2.330000e+00	5.000000e-01	2.437030e-04	
234	2.340000e+00	5.000000e-01	2.450548e-04	
235	2.350000e+00	5.000000e-01	2.464016e-04	
236	2.360000e+00	5.000000e-01	2.477433e-04	
237	2.370000e+00	5.000000e-01	2.490800e-04	
238	2.380000e+00	5.000000e-01	2.504116e-04	
239	2.390000e+00	5.000000e-01	2.517382e-04	
240	2.400000e+00	5.000000e-01	2.530599e-04	
241	2.410000e+00	5.000000e-01	2.543765e-04	
242	2.420000e+00	5.000000e-01	2.556883e-04	
243	2.430000e+00	5.000000e-01	2.569950e-04	
244	2.440000e+00	5.000000e-01	2.582969e-04	
245	2.450000e+00	5.000000e-01	2.595939e-04	
246	2.460000e+00	5.000000e-01	2.608860e-04	
247	2.470000e+00	5.000000e-01	2.621732e-04	
248	2.480000e+00	5.000000e-01	2.634557e-04	
249	2.490000e+00	5.000000e-01	2.647333e-04	
250	2.500000e+00	5.000000e-01	2.660062e-04	
251	2.510000e+00	5.000000e-01	2.672743e-04	
252	2.520000e+00	5.000000e-01	2.685377e-04	
253	2.530000e+00	5.000000e-01	2.697964e-04	
254	2.540000e+00	5.000000e-01	2.710505e-04	
255	2.550000e+00	5.000000e-01	2.722999e-04	
256	2.560000e+00	5.000000e-01	2.735447e-04	
257	2.570000e+00	5.000000e-01	2.747849e-04	
258	2.580000e+00	5.000000e-01	2.760206e-04	
259	2.590000e+00	5.000000e-01	2.772517e-04	
260	2.600000e+00	5.000000e-01	2.784783e-04	
261	2.610000e+00	5.000000e-01	2.797005e-04	
262	2.620000e+00	5.000000e-01	2.809183e-04	
263	2.630000e+00	5.000000e-01	2.821317e-04	
264	2.640000e+00	5.000000e-01	2.833407e-04	
265	2.650000e+00	5.000000e-01	2.845454e-04	
266	2.660000e+00	5.000000e-01	2.857458e-04	
267	2.670000e+00	5.000000e-01	2.869420e-04	
268	2.680000e+00	5.000000e-01	2.881339e-04	
269	2.690000e+00	5.000000e-01	2.893217e-04	
270	2.700000e+00	5.000000e-01	2.905053e-04	
271	2.710000e+00	5.000000e-01	2.916848e-04	
272	2.720000e+00	5.000000e-01	2.928602e-04	
273	2.730000e+00	5.000000e-01	2.940317e-04	
274	2.740000e+00	5.000000e-01	2.951991e-04	
275	2.750000e+00	5.000000e-01	2.963626e-04	
276	2.760000e+00	5.000000e-01	2.975222e-04	
277	2.770000e+00	5.000000e-01	2.986779e-04	
278	2.780000e+00	5.000000e-01	2.998299e-04	
279	2.790000e+00	5.000000e-01	3.009780e-04	
280	2.800000e+00	5.000000e-01	3.021224e-04	
281	2.810000e+00	5.000000e-01	3.032631e-04	
282	2.820000e+00	5.000000e-01	3.044002e-04	
283	2.830000e+00	5.000000e-01	3.055337e-04	
284	2.840000e+00	5.000000e-01	3.066637e-04	
285	2.850000e+00	5.000000e-01	3.077901e-04	
286	2.860000e+00	5.000000e-01	3.089132e-04	

Index   v-sweep         v(g)            vs#branch       
--------------------------------------------------------------------------------
287	2.870000e+00	5.000000e-01	3.100328e-04	
288	2.880000e+00	5.000000e-01	3.111490e-04	
289	2.890000e+00	5.000000e-01	3.122620e-04	
290	2.900000e+00	5.000000e-01	3.133717e-04	
291	2.910000e+00	5.000000e-01	3.144782e-04	
292	2.920000e+00	5.000000e-01	3.155815e-04	
293	2.930000e+00	5.000000e-01	3.166818e-04	
294	2.940000e+00	5.000000e-01	3.177790e-04	
295	2.950000e+00	5.000000e-01	3.188732e-04	
296	2.960000e+00	5.000000e-01	3.199645e-04	
297	2.970000e+00	5.000000e-01	3.210529e-04	
298	2.980000e+00	5.000000e-01	3.221385e-04	
299	2.990000e+00	5.000000e-01	3.232213e-04	
300	3.000000e+00	5.000000e-01	3.243014e-04	
301	0.000000e+00	1.000000e+00	-4.127090e-32	
302	1.000000e-02	1.000000e+00	3.035382e-05	
303	2.000000e-02	1.000000e+00	6.014191e-05	
304	3.000000e-02	1.000000e+00	8.936619e-05	
305	4.000000e-02	1.000000e+00	1.180286e-04	
306	5.000000e-02	1.000000e+00	1.461310e-04	
307	6.000000e-02	1.000000e+00	1.736754e-04	
308	7.000000e-02	1.000000e+00	2.006636e-04	
309	8.000000e-02	1.000000e+00	2.270975e-04	
310	9.000000e-02	1.000000e+00	2.529791e-04	
311	1.000000e-01	1.000000e+00	2.783103e-04	
312	1.100000e-01	1.000000e+00	3.030928e-04	
313	1.200000e-01	1.000000e+00	3.273287e-04	
314	1.300000e-01	1.000000e+00	3.510198e-04	
315	1.400000e-01	1.000000e+00	3.741679e-04	
316	1.500000e-01	1.000000e+00	3.967749e-04	
317	1.600000e-01	1.000000e+00	4.188428e-04	
318	1.700000e-01	1.000000e+00	4.403734e-04	
319	1.800000e-01	1.000000e+00	4.616360e-04	
320	1.900000e-01	1.000000e+00	4.820967e-04	
321	2.000000e-01	1.000000e+00	5.020257e-04	
322	2.100000e-01	1.000000e+00	5.214250e-04	
323	2.200000e-01	1.000000e+00	5.402964e-04	
324	2.300000e-01	1.000000e+00	5.586418e-04	
325	2.400000e-01	1.000000e+00	5.764632e-04	
326	2.500000e-01	1.000000e+00	5.937625e-04	
327	2.600000e-01	1.000000e+00	6.105416e-04	
328	2.700000e-01	1.000000e+00	6.268026e-04	
329	2.800000e-01	1.000000e+00	6.425474e-04	
330	2.900000e-01	1.000000e+00	6.577781e-04	
331	3.000000e-01	1.000000e+00	6.724969e-04	
332	3.100000e-01	1.000000e+00	6.867059e-04	
333	3.200000e-01	1.000000e+00	7.004073e-04	
334	3.300000e-01	1.000000e+00	7.136036e-04	
335	3.400000e-01	1.000000e+00	7.262972e-04	
336	3.500000e-01	1.000000e+00	7.384907e-04	
337	3.600000e-01	1.000000e+00	7.501870e-04	
338	3.700000e-01	1.000000e+00	7.613891e-04	
339	3.800000e-01	1.000000e+00	7.721005e-04	
340	3.900000e-01	1.000000e+00	7.823248e-04	
341	4.000000e-01	1.000000e+00	7.920664e-04	
342	4.100000e-01	1.000000e+00	8.013299e-04	
343	4.200000e-01	1.000000e+00	8.101209e-04	
344	4.300000e-01	1.000000e+00	8.184458e-04	

Index   v-sweep         v(g)            vs#branch       
--------------------------------------------------------------------------------
345	4.400000e-01	1.000000e+00	8.263120e-04	
346	4.500000e-01	1.000000e+00	8.337282e-04	
347	4.600000e-01	1.000000e+00	8.407046e-04	
348	4.700000e-01	1.000000e+00	8.472530e-04	
349	4.800000e-01	1.000000e+00	8.533869e-04	
350	4.900000e-01	1.000000e+00	8.591217e-04	
351	5.000000e-01	1.000000e+00	8.644749e-04	
352	5.100000e-01	1.000000e+00	8.694655e-04	
353	5.200000e-01	1.000000e+00	8.741141e-04	
354	5.300000e-01	1.000000e+00	8.784427e-04	
355	5.400000e-01	1.000000e+00	8.824737e-04	
356	5.500000e-01	1.000000e+00	8.862300e-04	
357	5.600000e-01	1.000000e+00	8.897343e-04	
358	5.700000e-01	1.000000e+00	8.930086e-04	
359	5.800000e-01	1.000000e+00	8.960739e-04	
360	5.900000e-01	1.000000e+00	8.989499e-04	
361	6.000000e-01	1.000000e+00	9.016552e-04	
362	6.100000e-01	1.000000e+00	9.042064e-04	
363	6.200000e-01	1.000000e+00	9.066190e-04	
364	6.300000e-01	1.000000e+00	9.089068e-04	
365	6.400000e-01	1.000000e+00	9.110824e-04	
366	6.500000e-01	1.000000e+00	9.131567e-04	
367	6.600000e-01	1.000000e+00	9.151399e-04	
368	6.700000e-01	1.000000e+00	9.170409e-04	
369	6.800000e-01	1.000000e+00	9.188674e-04	
370	6.900000e-01	1.000000e+00	9.206266e-04	
371	7.000000e-01	1.000000e+00	9.223246e-04	
372	7.100000e-01	1.000000e+00	9.239672e-04	
373	7.200000e-01	1.000000e+00	9.255593e-04	
374	7.300000e-01	1.000000e+00	9.271053e-04	
375	7.400000e-01	1.000000e+00	9.286091e-04	
376	7.500000e-01	1.000000e+00	9.300744e-04	
377	7.600000e-01	1.000000e+00	9.315043e-04	
378	7.700000e-01	1.000000e+00	9.329017e-04	
379	7.800000e-01	1.000000e+00	9.342692e-04	
380	7.900000e-01	1.000000e+00	9.356090e-04	
381	8.000000e-01	1.000000e+00	9.369234e-04	
382	8.100000e-01	1.000000e+00	9.382141e-04	
383	8.200000e-01	1.000000e+00	9.394830e-04	
384	8.300000e-01	1.000000e+00	9.407315e-04	
385	8.400000e-01	1.000000e+00	9.419611e-04	
386	8.500000e-01	1.000000e+00	9.431731e-04	
387	8.600000e-01	1.000000e+00	9.443687e-04	
388	8.700000e-01	1.000000e+00	9.455489e-04	
389	8.800000e-01	1.000000e+00	9.467148e-04	
390	8.900000e-01	1.000000e+00	9.478673e-04	
391	9.000000e-01	1.000000e+00	9.490010e-04	
392	9.100000e-01	1.000000e+00	9.501305e-04	
393	9.200000e-01	1.000000e+00	9.512496e-04	
394	9.300000e-01	1.000000e+00	9.523590e-04	
395	9.400000e-01	1.000000e+00	9.534597e-04	
396	9.500000e-01	1.000000e+00	9.545524e-04	
397	9.600000e-01	1.000000e+00	9.556378e-04	
398	9.700000e-01	1.000000e+00	9.567166e-04	
399	9.800000e-01	1.000000e+00	9.577924e-04	
400	9.900000e-01	1.000000e+00	9.588578e-04	
401	1.000000e+00	1.000000e+00	9.599222e-04	
402	1.010000e+00	1.000000e+00	9.609844e-04	

Index   v-sweep         v(g)            vs#branch       
--------------------------------------------------------------------------------
403	1.020000e+00	1.000000e+00	9.620466e-04	
404	1.030000e+00	1.000000e+00	9.631129e-04	
405	1.040000e+00	1.000000e+00	9.641899e-04	
406	1.050000e+00	1.000000e+00	9.652919e-04	
407	1.060000e+00	1.000000e+00	9.664149e-04	
408	1.070000e+00	1.000000e+00	9.676715e-04	
409	1.080000e+00	1.000000e+00	9.693004e-04	
410	1.090000e+00	1.000000e+00	9.734431e-04	
411	1.100000e+00	1.000000e+00	9.780210e-04	
412	1.110000e+00	1.000000e+00	9.834849e-04	
413	1.120000e+00	1.000000e+00	9.886748e-04	
414	1.130000e+00	1.000000e+00	9.936873e-04	
415	1.140000e+00	1.000000e+00	9.985700e-04	
416	1.150000e+00	1.000000e+00	1.003324e-03	
417	1.160000e+00	1.000000e+00	1.007959e-03	
418	1.170000e+00	1.000000e+00	1.012479e-03	
419	1.180000e+00	1.000000e+00	1.016892e-03	
420	1.190000e+00	1.000000e+00	1.021204e-03	
421	1.200000e+00	1.000000e+00	1.025419e-03	
422	1.210000e+00	1.000000e+00	1.029544e-03	
423	1.220000e+00	1.000000e+00	1.033583e-03	
424	1.230000e+00	1.000000e+00	1.037542e-03	
425	1.240000e+00	1.000000e+00	1.041424e-03	
426	1.250000e+00	1.000000e+00	1.045256e-03	
427	1.260000e+00	1.000000e+00	1.049121e-03	
428	1.270000e+00	1.000000e+00	1.052956e-03	
429	1.280000e+00	1.000000e+00	1.056750e-03	
430	1.290000e+00	1.000000e+00	1.060497e-03	
431	1.300000e+00	1.000000e+00	1.064195e-03	
432	1.310000e+00	1.000000e+00	1.067841e-03	
433	1.320000e+00	1.000000e+00	1.071433e-03	
434	1.330000e+00	1.000000e+00	1.074970e-03	
435	1.340000e+00	1.000000e+00	1.078455e-03	
436	1.350000e+00	1.000000e+00	1.081885e-03	
437	1.360000e+00	1.000000e+00	1.085263e-03	
438	1.370000e+00	1.000000e+00	1.088590e-03	
439	1.380000e+00	1.000000e+00	1.091866e-03	
440	1.390000e+00	1.000000e+00	1.095093e-03	
441	1.400000e+00	1.000000e+00	1.098273e-03	
442	1.410000e+00	1.000000e+00	1.101406e-03	
443	1.420000e+00	1.000000e+00	1.104494e-03	
444	1.430000e+00	1.000000e+00	1.107538e-03	
445	1.440000e+00	1.000000e+00	1.110540e-03	
446	1.450000e+00	1.000000e+00	1.113502e-03	
447	1.460000e+00	1.000000e+00	1.116424e-03	
448	1.470000e+00	1.000000e+00	1.119307e-03	
449	1.480000e+00	1.000000e+00	1.122154e-03	
450	1.490000e+00	1.000000e+00	1.124965e-03	
451	1.500000e+00	1.000000e+00	1.127742e-03	
452	1.510000e+00	1.000000e+00	1.130485e-03	
453	1.520000e+00	1.000000e+00	1.133196e-03	
454	1.530000e+00	1.000000e+00	1.135876e-03	
455	1.540000e+00	1.000000e+00	1.138526e-03	
456	1.550000e+00	1.000000e+00	1.141147e-03	
457	1.560000e+00	1.000000e+00	1.143740e-03	
458	1.570000e+00	1.000000e+00	1.146306e-03	
459	1.580000e+00	1.000000e+00	1.148845e-03	
460	1.590000e+00	1.000000e+00	1.151360e-03	

Index   v-sweep         v(g)            vs#branch       
--------------------------------------------------------------------------------
461	1.600000e+00	1.000000e+00	1.153850e-03	
462	1.610000e+00	1.000000e+00	1.156317e-03	
463	1.620000e+00	1.000000e+00	1.158760e-03	
464	1.630000e+00	1.000000e+00	1.161182e-03	
465	1.640000e+00	1.000000e+00	1.163582e-03	
466	1.650000e+00	1.000000e+00	1.165961e-03	
467	1.660000e+00	1.000000e+00	1.168321e-03	
468	1.670000e+00	1.000000e+00	1.170661e-03	
469	1.680000e+00	1.000000e+00	1.172982e-03	
470	1.690000e+00	1.000000e+00	1.175286e-03	
471	1.700000e+00	1.000000e+00	1.177571e-03	
472	1.710000e+00	1.000000e+00	1.179840e-03	
473	1.720000e+00	1.000000e+00	1.182092e-03	
474	1.730000e+00	1.000000e+00	1.184328e-03	
475	1.740000e+00	1.000000e+00	1.186548e-03	
476	1.750000e+00	1.000000e+00	1.188754e-03	
477	1.760000e+00	1.000000e+00	1.190944e-03	
478	1.770000e+00	1.000000e+00	1.193121e-03	
479	1.780000e+00	1.000000e+00	1.195283e-03	
480	1.790000e+00	1.000000e+00	1.197433e-03	
481	1.800000e+00	1.000000e+00	1.199569e-03	
482	1.810000e+00	1.000000e+00	1.201692e-03	
483	1.820000e+00	1.000000e+00	1.203803e-03	
484	1.830000e+00	1.000000e+00	1.205901e-03	
485	1.840000e+00	1.000000e+00	1.207988e-03	
486	1.850000e+00	1.000000e+00	1.210063e-03	
487	1.860000e+00	1.000000e+00	1.212128e-03	
488	1.870000e+00	1.000000e+00	1.214181e-03	
489	1.880000e+00	1.000000e+00	1.216223e-03	
490	1.890000e+00	1.000000e+00	1.218255e-03	
491	1.900000e+00	1.000000e+00	1.220277e-03	
492	1.910000e+00	1.000000e+00	1.222288e-03	
493	1.920000e+00	1.000000e+00	1.224290e-03	
494	1.930000e+00	1.000000e+00	1.226282e-03	
495	1.940000e+00	1.000000e+00	1.228265e-03	
496	1.950000e+00	1.000000e+00	1.230238e-03	
497	1.960000e+00	1.000000e+00	1.232202e-03	
498	1.970000e+00	1.000000e+00	1.234157e-03	
499	1.980000e+00	1.000000e+00	1.236104e-03	
500	1.990000e+00	1.000000e+00	1.238041e-03	
501	2.000000e+00	1.000000e+00	1.239970e-03	
502	2.010000e+00	1.000000e+00	1.241891e-03	
503	2.020000e+00	1.000000e+00	1.243803e-03	
504	2.030000e+00	1.000000e+00	1.245707e-03	
505	2.040000e+00	1.000000e+00	1.247603e-03	
506	2.050000e+00	1.000000e+00	1.249491e-03	
507	2.060000e+00	1.000000e+00	1.251371e-03	
508	2.070000e+00	1.000000e+00	1.253243e-03	
509	2.080000e+00	1.000000e+00	1.255107e-03	
510	2.090000e+00	1.000000e+00	1.256964e-03	
511	2.100000e+00	1.000000e+00	1.258813e-03	
512	2.110000e+00	1.000000e+00	1.260654e-03	
513	2.120000e+00	1.000000e+00	1.262488e-03	
514	2.130000e+00	1.000000e+00	1.264314e-03	
515	2.140000e+00	1.000000e+00	1.266133e-03	
516	2.150000e+00	1.000000e+00	1.267945e-03	
517	2.160000e+00	1.000000e+00	1.269749e-03	
518	2.170000e+00	1.000000e+00	1.271546e-03	

Index   v-sweep         v(g)            vs#branch       
--------------------------------------------------------------------------------
519	2.180000e+00	1.000000e+00	1.273336e-03	
520	2.190000e+00	1.000000e+00	1.275118e-03	
521	2.200000e+00	1.000000e+00	1.276893e-03	
522	2.210000e+00	1.000000e+00	1.278661e-03	
523	2.220000e+00	1.000000e+00	1.280422e-03	
524	2.230000e+00	1.000000e+00	1.282176e-03	
525	2.240000e+00	1.000000e+00	1.283923e-03	
526	2.250000e+00	1.000000e+00	1.285662e-03	
527	2.260000e+00	1.000000e+00	1.287395e-03	
528	2.270000e+00	1.000000e+00	1.289121e-03	
529	2.280000e+00	1.000000e+00	1.290839e-03	
530	2.290000e+00	1.000000e+00	1.292551e-03	
531	2.300000e+00	1.000000e+00	1.294255e-03	
532	2.310000e+00	1.000000e+00	1.295953e-03	
533	2.320000e+00	1.000000e+00	1.297643e-03	
534	2.330000e+00	1.000000e+00	1.299327e-03	
535	2.340000e+00	1.000000e+00	1.301004e-03	
536	2.350000e+00	1.000000e+00	1.302673e-03	
537	2.360000e+00	1.000000e+00	1.304336e-03	
538	2.370000e+00	1.000000e+00	1.305992e-03	
539	2.380000e+00	1.000000e+00	1.307641e-03	
540	2.390000e+00	1.000000e+00	1.309284e-03	
541	2.400000e+00	1.000000e+00	1.310919e-03	
542	2.410000e+00	1.000000e+00	1.312548e-03	
543	2.420000e+00	1.000000e+00	1.314169e-03	
544	2.430000e+00	1.000000e+00	1.315784e-03	
545	2.440000e+00	1.000000e+00	1.317392e-03	
546	2.450000e+00	1.000000e+00	1.318994e-03	
547	2.460000e+00	1.000000e+00	1.320588e-03	
548	2.470000e+00	1.000000e+00	1.322176e-03	
549	2.480000e+00	1.000000e+00	1.323757e-03	
550	2.490000e+00	1.000000e+00	1.325331e-03	
551	2.500000e+00	1.000000e+00	1.326899e-03	
552	2.510000e+00	1.000000e+00	1.328460e-03	
553	2.520000e+00	1.000000e+00	1.330015e-03	
554	2.530000e+00	1.000000e+00	1.331562e-03	
555	2.540000e+00	1.000000e+00	1.333104e-03	
556	2.550000e+00	1.000000e+00	1.334638e-03	
557	2.560000e+00	1.000000e+00	1.336167e-03	
558	2.570000e+00	1.000000e+00	1.337688e-03	
559	2.580000e+00	1.000000e+00	1.339204e-03	
560	2.590000e+00	1.000000e+00	1.340713e-03	
561	2.600000e+00	1.000000e+00	1.342215e-03	
562	2.610000e+00	1.000000e+00	1.343712e-03	
563	2.620000e+00	1.000000e+00	1.345202e-03	
564	2.630000e+00	1.000000e+00	1.346686e-03	
565	2.640000e+00	1.000000e+00	1.348163e-03	
566	2.650000e+00	1.000000e+00	1.349635e-03	
567	2.660000e+00	1.000000e+00	1.351100e-03	
568	2.670000e+00	1.000000e+00	1.352560e-03	
569	2.680000e+00	1.000000e+00	1.354013e-03	
570	2.690000e+00	1.000000e+00	1.355461e-03	
571	2.700000e+00	1.000000e+00	1.356903e-03	
572	2.710000e+00	1.000000e+00	1.358339e-03	
573	2.720000e+00	1.000000e+00	1.359769e-03	
574	2.730000e+00	1.000000e+00	1.361194e-03	
575	2.740000e+00	1.000000e+00	1.362613e-03	
576	2.750000e+00	1.000000e+00	1.364027e-03	

Index   v-sweep         v(g)            vs#branch       
--------------------------------------------------------------------------------
577	2.760000e+00	1.000000e+00	1.365435e-03	
578	2.770000e+00	1.000000e+00	1.366838e-03	
579	2.780000e+00	1.000000e+00	1.368236e-03	
580	2.790000e+00	1.000000e+00	1.369629e-03	
581	2.800000e+00	1.000000e+00	1.371016e-03	
582	2.810000e+00	1.000000e+00	1.372399e-03	
583	2.820000e+00	1.000000e+00	1.373777e-03	
584	2.830000e+00	1.000000e+00	1.375149e-03	
585	2.840000e+00	1.000000e+00	1.376517e-03	
586	2.850000e+00	1.000000e+00	1.377881e-03	
587	2.860000e+00	1.000000e+00	1.379240e-03	
588	2.870000e+00	1.000000e+00	1.380594e-03	
589	2.880000e+00	1.000000e+00	1.381945e-03	
590	2.890000e+00	1.000000e+00	1.383291e-03	
591	2.900000e+00	1.000000e+00	1.384632e-03	
592	2.910000e+00	1.000000e+00	1.385970e-03	
593	2.920000e+00	1.000000e+00	1.387304e-03	
594	2.930000e+00	1.000000e+00	1.388635e-03	
595	2.940000e+00	1.000000e+00	1.389961e-03	
596	2.950000e+00	1.000000e+00	1.391284e-03	
597	2.960000e+00	1.000000e+00	1.392604e-03	
598	2.970000e+00	1.000000e+00	1.393920e-03	
599	2.980000e+00	1.000000e+00	1.395233e-03	
600	2.990000e+00	1.000000e+00	1.396543e-03	
601	3.000000e+00	1.000000e+00	1.397850e-03	
602	0.000000e+00	1.500000e+00	1.702997e-33	
603	1.000000e-02	1.500000e+00	4.579468e-05	
604	2.000000e-02	1.500000e+00	9.111651e-05	
605	3.000000e-02	1.500000e+00	1.359666e-04	
606	4.000000e-02	1.500000e+00	1.803462e-04	
607	5.000000e-02	1.500000e+00	2.242563e-04	
608	6.000000e-02	1.500000e+00	2.676981e-04	
609	7.000000e-02	1.500000e+00	3.106727e-04	
610	8.000000e-02	1.500000e+00	3.531813e-04	
611	9.000000e-02	1.500000e+00	3.952248e-04	
612	1.000000e-01	1.500000e+00	4.368045e-04	
613	1.100000e-01	1.500000e+00	4.779215e-04	
614	1.200000e-01	1.500000e+00	5.185768e-04	
615	1.300000e-01	1.500000e+00	5.587716e-04	
616	1.400000e-01	1.500000e+00	5.985069e-04	
617	1.500000e-01	1.500000e+00	6.377839e-04	
618	1.600000e-01	1.500000e+00	6.766036e-04	
619	1.700000e-01	1.500000e+00	7.149671e-04	
620	1.800000e-01	1.500000e+00	7.531028e-04	
621	1.900000e-01	1.500000e+00	7.905567e-04	
622	2.000000e-01	1.500000e+00	8.275575e-04	
623	2.100000e-01	1.500000e+00	8.641064e-04	
624	2.200000e-01	1.500000e+00	9.002045e-04	
625	2.300000e-01	1.500000e+00	9.358528e-04	
626	2.400000e-01	1.500000e+00	9.710523e-04	
627	2.500000e-01	1.500000e+00	1.005804e-03	
628	2.600000e-01	1.500000e+00	1.040109e-03	
629	2.700000e-01	1.500000e+00	1.073969e-03	
630	2.800000e-01	1.500000e+00	1.107384e-03	
631	2.900000e-01	1.500000e+00	1.140355e-03	
632	3.000000e-01	1.500000e+00	1.172884e-03	
633	3.100000e-01	1.500000e+00	1.204971e-03	
634	3.200000e-01	1.500000e+00	1.236617e-03	

Index   v-sweep         v(g)            vs#branch       
--------------------------------------------------------------------------------
635	3.300000e-01	1.500000e+00	1.267824e-03	
636	3.400000e-01	1.500000e+00	1.298593e-03	
637	3.500000e-01	1.500000e+00	1.328923e-03	
638	3.600000e-01	1.500000e+00	1.358817e-03	
639	3.700000e-01	1.500000e+00	1.388276e-03	
640	3.800000e-01	1.500000e+00	1.417299e-03	
641	3.900000e-01	1.500000e+00	1.445889e-03	
642	4.000000e-01	1.500000e+00	1.474046e-03	
643	4.100000e-01	1.500000e+00	1.501771e-03	
644	4.200000e-01	1.500000e+00	1.529065e-03	
645	4.300000e-01	1.500000e+00	1.555928e-03	
646	4.400000e-01	1.500000e+00	1.582362e-03	
647	4.500000e-01	1.500000e+00	1.608368e-03	
648	4.600000e-01	1.500000e+00	1.633946e-03	
649	4.700000e-01	1.500000e+00	1.659097e-03	
650	4.800000e-01	1.500000e+00	1.683822e-03	
651	4.900000e-01	1.500000e+00	1.708122e-03	
652	5.000000e-01	1.500000e+00	1.731998e-03	
653	5.100000e-01	1.500000e+00	1.755449e-03	
654	5.200000e-01	1.500000e+00	1.778477e-03	
655	5.300000e-01	1.500000e+00	1.801083e-03	
656	5.400000e-01	1.500000e+00	1.823267e-03	
657	5.500000e-01	1.500000e+00	1.845030e-03	
658	5.600000e-01	1.500000e+00	1.866371e-03	
659	5.700000e-01	1.500000e+00	1.887293e-03	
660	5.800000e-01	1.500000e+00	1.907794e-03	
661	5.900000e-01	1.500000e+00	1.927876e-03	
662	6.000000e-01	1.500000e+00	1.947538e-03	
663	6.100000e-01	1.500000e+00	1.966782e-03	
664	6.200000e-01	1.500000e+00	1.985606e-03	
665	6.300000e-01	1.500000e+00	2.004012e-03	
666	6.400000e-01	1.500000e+00	2.021998e-03	
667	6.500000e-01	1.500000e+00	2.039565e-03	
668	6.600000e-01	1.500000e+00	2.056713e-03	
669	6.700000e-01	1.500000e+00	2.073440e-03	
670	6.800000e-01	1.500000e+00	2.089748e-03	
671	6.900000e-01	1.500000e+00	2.105634e-03	
672	7.000000e-01	1.500000e+00	2.121097e-03	
673	7.100000e-01	1.500000e+00	2.136138e-03	
674	7.200000e-01	1.500000e+00	2.150755e-03	
675	7.300000e-01	1.500000e+00	2.164947e-03	
676	7.400000e-01	1.500000e+00	2.178711e-03	
677	7.500000e-01	1.500000e+00	2.192048e-03	
678	7.600000e-01	1.500000e+00	2.204955e-03	
679	7.700000e-01	1.500000e+00	2.217431e-03	
680	7.800000e-01	1.500000e+00	2.229475e-03	
681	7.900000e-01	1.500000e+00	2.241086e-03	
682	8.000000e-01	1.500000e+00	2.252262e-03	
683	8.100000e-01	1.500000e+00	2.263004e-03	
684	8.200000e-01	1.500000e+00	2.273313e-03	
685	8.300000e-01	1.500000e+00	2.283189e-03	
686	8.400000e-01	1.500000e+00	2.292635e-03	
687	8.500000e-01	1.500000e+00	2.301655e-03	
688	8.600000e-01	1.500000e+00	2.310254e-03	
689	8.700000e-01	1.500000e+00	2.318438e-03	
690	8.800000e-01	1.500000e+00	2.326216e-03	
691	8.900000e-01	1.500000e+00	2.333598e-03	
692	9.000000e-01	1.500000e+00	2.340596e-03	

Index   v-sweep         v(g)            vs#branch       
--------------------------------------------------------------------------------
693	9.100000e-01	1.500000e+00	2.347224e-03	
694	9.200000e-01	1.500000e+00	2.353495e-03	
695	9.300000e-01	1.500000e+00	2.359426e-03	
696	9.400000e-01	1.500000e+00	2.365034e-03	
697	9.500000e-01	1.500000e+00	2.370335e-03	
698	9.600000e-01	1.500000e+00	2.375348e-03	
699	9.700000e-01	1.500000e+00	2.380090e-03	
700	9.800000e-01	1.500000e+00	2.384579e-03	
701	9.900000e-01	1.500000e+00	2.388831e-03	
702	1.000000e+00	1.500000e+00	2.392864e-03	
703	1.010000e+00	1.500000e+00	2.396692e-03	
704	1.020000e+00	1.500000e+00	2.400330e-03	
705	1.030000e+00	1.500000e+00	2.403794e-03	
706	1.040000e+00	1.500000e+00	2.407095e-03	
707	1.050000e+00	1.500000e+00	2.410246e-03	
708	1.060000e+00	1.500000e+00	2.413258e-03	
709	1.070000e+00	1.500000e+00	2.416143e-03	
710	1.080000e+00	1.500000e+00	2.418908e-03	
711	1.090000e+00	1.500000e+00	2.421565e-03	
712	1.100000e+00	1.500000e+00	2.424120e-03	
713	1.110000e+00	1.500000e+00	2.426537e-03	
714	1.120000e+00	1.500000e+00	2.428918e-03	
715	1.130000e+00	1.500000e+00	2.431220e-03	
716	1.140000e+00	1.500000e+00	2.433449e-03	
717	1.150000e+00	1.500000e+00	2.435610e-03	
718	1.160000e+00	1.500000e+00	2.437708e-03	
719	1.170000e+00	1.500000e+00	2.439777e-03	
720	1.180000e+00	1.500000e+00	2.441763e-03	
721	1.190000e+00	1.500000e+00	2.443701e-03	
722	1.200000e+00	1.500000e+00	2.445575e-03	
723	1.210000e+00	1.500000e+00	2.447435e-03	
724	1.220000e+00	1.500000e+00	2.449265e-03	
725	1.230000e+00	1.500000e+00	2.451077e-03	
726	1.240000e+00	1.500000e+00	2.452884e-03	
727	1.250000e+00	1.500000e+00	2.454714e-03	
728	1.260000e+00	1.500000e+00	2.456659e-03	
729	1.270000e+00	1.500000e+00	2.459023e-03	
730	1.280000e+00	1.500000e+00	2.463133e-03	
731	1.290000e+00	1.500000e+00	2.470754e-03	
732	1.300000e+00	1.500000e+00	2.478547e-03	
733	1.310000e+00	1.500000e+00	2.485973e-03	
734	1.320000e+00	1.500000e+00	2.493229e-03	
735	1.330000e+00	1.500000e+00	2.500347e-03	
736	1.340000e+00	1.500000e+00	2.507335e-03	
737	1.350000e+00	1.500000e+00	2.514198e-03	
738	1.360000e+00	1.500000e+00	2.520939e-03	
739	1.370000e+00	1.500000e+00	2.527562e-03	
740	1.380000e+00	1.500000e+00	2.534073e-03	
741	1.390000e+00	1.500000e+00	2.540475e-03	
742	1.400000e+00	1.500000e+00	2.546774e-03	
743	1.410000e+00	1.500000e+00	2.552972e-03	
744	1.420000e+00	1.500000e+00	2.559073e-03	
745	1.430000e+00	1.500000e+00	2.565082e-03	
746	1.440000e+00	1.500000e+00	2.571048e-03	
747	1.450000e+00	1.500000e+00	2.577053e-03	
748	1.460000e+00	1.500000e+00	2.583017e-03	
749	1.470000e+00	1.500000e+00	2.588926e-03	
750	1.480000e+00	1.500000e+00	2.594771e-03	

Index   v-sweep         v(g)            vs#branch       
--------------------------------------------------------------------------------
751	1.490000e+00	1.500000e+00	2.600546e-03	
752	1.500000e+00	1.500000e+00	2.606246e-03	
753	1.510000e+00	1.500000e+00	2.611868e-03	
754	1.520000e+00	1.500000e+00	2.617412e-03	
755	1.530000e+00	1.500000e+00	2.622876e-03	
756	1.540000e+00	1.500000e+00	2.628261e-03	
757	1.550000e+00	1.500000e+00	2.633566e-03	
758	1.560000e+00	1.500000e+00	2.638793e-03	
759	1.570000e+00	1.500000e+00	2.643941e-03	
760	1.580000e+00	1.500000e+00	2.649013e-03	
761	1.590000e+00	1.500000e+00	2.654009e-03	
762	1.600000e+00	1.500000e+00	2.658931e-03	
763	1.610000e+00	1.500000e+00	2.663781e-03	
764	1.620000e+00	1.500000e+00	2.668558e-03	
765	1.630000e+00	1.500000e+00	2.673266e-03	
766	1.640000e+00	1.500000e+00	2.677906e-03	
767	1.650000e+00	1.500000e+00	2.682478e-03	
768	1.660000e+00	1.500000e+00	2.686984e-03	
769	1.670000e+00	1.500000e+00	2.691427e-03	
770	1.680000e+00	1.500000e+00	2.695807e-03	
771	1.690000e+00	1.500000e+00	2.700125e-03	
772	1.700000e+00	1.500000e+00	2.704384e-03	
773	1.710000e+00	1.500000e+00	2.708584e-03	
774	1.720000e+00	1.500000e+00	2.712727e-03	
775	1.730000e+00	1.500000e+00	2.716813e-03	
776	1.740000e+00	1.500000e+00	2.720845e-03	
777	1.750000e+00	1.500000e+00	2.724824e-03	
778	1.760000e+00	1.500000e+00	2.728750e-03	
779	1.770000e+00	1.500000e+00	2.732626e-03	
780	1.780000e+00	1.500000e+00	2.736451e-03	
781	1.790000e+00	1.500000e+00	2.740227e-03	
782	1.800000e+00	1.500000e+00	2.743956e-03	
783	1.810000e+00	1.500000e+00	2.747638e-03	
784	1.820000e+00	1.500000e+00	2.751274e-03	
785	1.830000e+00	1.500000e+00	2.754865e-03	
786	1.840000e+00	1.500000e+00	2.758413e-03	
787	1.850000e+00	1.500000e+00	2.761917e-03	
788	1.860000e+00	1.500000e+00	2.765380e-03	
789	1.870000e+00	1.500000e+00	2.768802e-03	
790	1.880000e+00	1.500000e+00	2.772184e-03	
791	1.890000e+00	1.500000e+00	2.775526e-03	
792	1.900000e+00	1.500000e+00	2.778830e-03	
793	1.910000e+00	1.500000e+00	2.782095e-03	
794	1.920000e+00	1.500000e+00	2.785324e-03	
795	1.930000e+00	1.500000e+00	2.788517e-03	
796	1.940000e+00	1.500000e+00	2.791674e-03	
797	1.950000e+00	1.500000e+00	2.794796e-03	
798	1.960000e+00	1.500000e+00	2.797884e-03	
799	1.970000e+00	1.500000e+00	2.800939e-03	
800	1.980000e+00	1.500000e+00	2.803960e-03	
801	1.990000e+00	1.500000e+00	2.806949e-03	
802	2.000000e+00	1.500000e+00	2.809907e-03	
803	2.010000e+00	1.500000e+00	2.812834e-03	
804	2.020000e+00	1.500000e+00	2.815730e-03	
805	2.030000e+00	1.500000e+00	2.818596e-03	
806	2.040000e+00	1.500000e+00	2.821432e-03	
807	2.050000e+00	1.500000e+00	2.824240e-03	
808	2.060000e+00	1.500000e+00	2.827019e-03	

Index   v-sweep         v(g)            vs#branch       
--------------------------------------------------------------------------------
809	2.070000e+00	1.500000e+00	2.829770e-03	
810	2.080000e+00	1.500000e+00	2.832494e-03	
811	2.090000e+00	1.500000e+00	2.835191e-03	
812	2.100000e+00	1.500000e+00	2.837861e-03	
813	2.110000e+00	1.500000e+00	2.840505e-03	
814	2.120000e+00	1.500000e+00	2.843123e-03	
815	2.130000e+00	1.500000e+00	2.845717e-03	
816	2.140000e+00	1.500000e+00	2.848285e-03	
817	2.150000e+00	1.500000e+00	2.850828e-03	
818	2.160000e+00	1.500000e+00	2.853348e-03	
819	2.170000e+00	1.500000e+00	2.855843e-03	
820	2.180000e+00	1.500000e+00	2.858316e-03	
821	2.190000e+00	1.500000e+00	2.860765e-03	
822	2.200000e+00	1.500000e+00	2.863191e-03	
823	2.210000e+00	1.500000e+00	2.865595e-03	
824	2.220000e+00	1.500000e+00	2.867976e-03	
825	2.230000e+00	1.500000e+00	2.870336e-03	
826	2.240000e+00	1.500000e+00	2.872675e-03	
827	2.250000e+00	1.500000e+00	2.874992e-03	
828	2.260000e+00	1.500000e+00	2.877288e-03	
829	2.270000e+00	1.500000e+00	2.879563e-03	
830	2.280000e+00	1.500000e+00	2.881818e-03	
831	2.290000e+00	1.500000e+00	2.884053e-03	
832	2.300000e+00	1.500000e+00	2.886267e-03	
833	2.310000e+00	1.500000e+00	2.888462e-03	
834	2.320000e+00	1.500000e+00	2.890638e-03	
835	2.330000e+00	1.500000e+00	2.892794e-03	
836	2.340000e+00	1.500000e+00	2.894932e-03	
837	2.350000e+00	1.500000e+00	2.897050e-03	
838	2.360000e+00	1.500000e+00	2.899150e-03	
839	2.370000e+00	1.500000e+00	2.901231e-03	
840	2.380000e+00	1.500000e+00	2.903295e-03	
841	2.390000e+00	1.500000e+00	2.905340e-03	
842	2.400000e+00	1.500000e+00	2.907367e-03	
843	2.410000e+00	1.500000e+00	2.909377e-03	
844	2.420000e+00	1.500000e+00	2.911370e-03	
845	2.430000e+00	1.500000e+00	2.913345e-03	
846	2.440000e+00	1.500000e+00	2.915303e-03	
847	2.450000e+00	1.500000e+00	2.917244e-03	
848	2.460000e+00	1.500000e+00	2.919169e-03	
849	2.470000e+00	1.500000e+00	2.921077e-03	
850	2.480000e+00	1.500000e+00	2.922968e-03	
851	2.490000e+00	1.500000e+00	2.924844e-03	
852	2.500000e+00	1.500000e+00	2.926703e-03	
853	2.510000e+00	1.500000e+00	2.928546e-03	
854	2.520000e+00	1.500000e+00	2.930374e-03	
855	2.530000e+00	1.500000e+00	2.932186e-03	
856	2.540000e+00	1.500000e+00	2.933982e-03	
857	2.550000e+00	1.500000e+00	2.935763e-03	
858	2.560000e+00	1.500000e+00	2.937529e-03	
859	2.570000e+00	1.500000e+00	2.939280e-03	
860	2.580000e+00	1.500000e+00	2.941016e-03	
861	2.590000e+00	1.500000e+00	2.942738e-03	
862	2.600000e+00	1.500000e+00	2.944444e-03	
863	2.610000e+00	1.500000e+00	2.946137e-03	
864	2.620000e+00	1.500000e+00	2.947815e-03	
865	2.630000e+00	1.500000e+00	2.949479e-03	
866	2.640000e+00	1.500000e+00	2.951129e-03	

Index   v-sweep         v(g)            vs#branch       
--------------------------------------------------------------------------------
867	2.650000e+00	1.500000e+00	2.952765e-03	
868	2.660000e+00	1.500000e+00	2.954388e-03	
869	2.670000e+00	1.500000e+00	2.955997e-03	
870	2.680000e+00	1.500000e+00	2.957593e-03	
871	2.690000e+00	1.500000e+00	2.959175e-03	
872	2.700000e+00	1.500000e+00	2.960745e-03	
873	2.710000e+00	1.500000e+00	2.962301e-03	
874	2.720000e+00	1.500000e+00	2.963845e-03	
875	2.730000e+00	1.500000e+00	2.965376e-03	
876	2.740000e+00	1.500000e+00	2.966895e-03	
877	2.750000e+00	1.500000e+00	2.968401e-03	
878	2.760000e+00	1.500000e+00	2.969896e-03	
879	2.770000e+00	1.500000e+00	2.971378e-03	
880	2.780000e+00	1.500000e+00	2.972849e-03	
881	2.790000e+00	1.500000e+00	2.974308e-03	
882	2.800000e+00	1.500000e+00	2.975755e-03	
883	2.810000e+00	1.500000e+00	2.977192e-03	
884	2.820000e+00	1.500000e+00	2.978617e-03	
885	2.830000e+00	1.500000e+00	2.980031e-03	
886	2.840000e+00	1.500000e+00	2.981435e-03	
887	2.850000e+00	1.500000e+00	2.982828e-03	
888	2.860000e+00	1.500000e+00	2.984211e-03	
889	2.870000e+00	1.500000e+00	2.985584e-03	
890	2.880000e+00	1.500000e+00	2.986947e-03	
891	2.890000e+00	1.500000e+00	2.988299e-03	
892	2.900000e+00	1.500000e+00	2.989643e-03	
893	2.910000e+00	1.500000e+00	2.990977e-03	
894	2.920000e+00	1.500000e+00	2.992302e-03	
895	2.930000e+00	1.500000e+00	2.993618e-03	
896	2.940000e+00	1.500000e+00	2.994925e-03	
897	2.950000e+00	1.500000e+00	2.996224e-03	
898	2.960000e+00	1.500000e+00	2.997514e-03	
899	2.970000e+00	1.500000e+00	2.998797e-03	
900	2.980000e+00	1.500000e+00	3.000071e-03	
901	2.990000e+00	1.500000e+00	3.001338e-03	
902	3.000000e+00	1.500000e+00	3.002598e-03	
903	0.000000e+00	2.000000e+00	-6.516941e-35	
904	1.000000e-02	2.000000e+00	5.447069e-05	
905	2.000000e-02	2.000000e+00	1.085482e-04	
906	3.000000e-02	2.000000e+00	1.622332e-04	
907	4.000000e-02	2.000000e+00	2.155265e-04	
908	5.000000e-02	2.000000e+00	2.684288e-04	
909	6.000000e-02	2.000000e+00	3.209408e-04	
910	7.000000e-02	2.000000e+00	3.730632e-04	
911	8.000000e-02	2.000000e+00	4.247969e-04	
912	9.000000e-02	2.000000e+00	4.761425e-04	
913	1.000000e-01	2.000000e+00	5.271007e-04	
914	1.100000e-01	2.000000e+00	5.776722e-04	
915	1.200000e-01	2.000000e+00	6.278579e-04	
916	1.300000e-01	2.000000e+00	6.776583e-04	
917	1.400000e-01	2.000000e+00	7.270742e-04	
918	1.500000e-01	2.000000e+00	7.761064e-04	
919	1.600000e-01	2.000000e+00	8.247555e-04	
920	1.700000e-01	2.000000e+00	8.730222e-04	
921	1.800000e-01	2.000000e+00	9.210980e-04	
922	1.900000e-01	2.000000e+00	9.686018e-04	
923	2.000000e-01	2.000000e+00	1.015725e-03	
924	2.100000e-01	2.000000e+00	1.062469e-03	

Index   v-sweep         v(g)            vs#branch       
--------------------------------------------------------------------------------
925	2.200000e-01	2.000000e+00	1.108835e-03	
926	2.300000e-01	2.000000e+00	1.154822e-03	
927	2.400000e-01	2.000000e+00	1.200431e-03	
928	2.500000e-01	2.000000e+00	1.245664e-03	
929	2.600000e-01	2.000000e+00	1.290521e-03	
930	2.700000e-01	2.000000e+00	1.335002e-03	
931	2.800000e-01	2.000000e+00	1.379109e-03	
932	2.900000e-01	2.000000e+00	1.422842e-03	
933	3.000000e-01	2.000000e+00	1.466201e-03	
934	3.100000e-01	2.000000e+00	1.509188e-03	
935	3.200000e-01	2.000000e+00	1.551802e-03	
936	3.300000e-01	2.000000e+00	1.594046e-03	
937	3.400000e-01	2.000000e+00	1.635919e-03	
938	3.500000e-01	2.000000e+00	1.677421e-03	
939	3.600000e-01	2.000000e+00	1.718555e-03	
940	3.700000e-01	2.000000e+00	1.759320e-03	
941	3.800000e-01	2.000000e+00	1.799716e-03	
942	3.900000e-01	2.000000e+00	1.839746e-03	
943	4.000000e-01	2.000000e+00	1.879408e-03	
944	4.100000e-01	2.000000e+00	1.918705e-03	
945	4.200000e-01	2.000000e+00	1.957636e-03	
946	4.300000e-01	2.000000e+00	1.996203e-03	
947	4.400000e-01	2.000000e+00	2.034405e-03	
948	4.500000e-01	2.000000e+00	2.072244e-03	
949	4.600000e-01	2.000000e+00	2.109720e-03	
950	4.700000e-01	2.000000e+00	2.146834e-03	
951	4.800000e-01	2.000000e+00	2.183586e-03	
952	4.900000e-01	2.000000e+00	2.219977e-03	
953	5.000000e-01	2.000000e+00	2.256007e-03	
954	5.100000e-01	2.000000e+00	2.291678e-03	
955	5.200000e-01	2.000000e+00	2.326990e-03	
956	5.300000e-01	2.000000e+00	2.361942e-03	
957	5.400000e-01	2.000000e+00	2.396537e-03	
958	5.500000e-01	2.000000e+00	2.430775e-03	
959	5.600000e-01	2.000000e+00	2.464655e-03	
960	5.700000e-01	2.000000e+00	2.498179e-03	
961	5.800000e-01	2.000000e+00	2.531348e-03	
962	5.900000e-01	2.000000e+00	2.564161e-03	
963	6.000000e-01	2.000000e+00	2.596620e-03	
964	6.100000e-01	2.000000e+00	2.628724e-03	
965	6.200000e-01	2.000000e+00	2.660475e-03	
966	6.300000e-01	2.000000e+00	2.691873e-03	
967	6.400000e-01	2.000000e+00	2.722918e-03	
968	6.500000e-01	2.000000e+00	2.753611e-03	
969	6.600000e-01	2.000000e+00	2.783952e-03	
970	6.700000e-01	2.000000e+00	2.813942e-03	
971	6.800000e-01	2.000000e+00	2.843581e-03	
972	6.900000e-01	2.000000e+00	2.872871e-03	
973	7.000000e-01	2.000000e+00	2.901810e-03	
974	7.100000e-01	2.000000e+00	2.930400e-03	
975	7.200000e-01	2.000000e+00	2.958640e-03	
976	7.300000e-01	2.000000e+00	2.986532e-03	
977	7.400000e-01	2.000000e+00	3.014076e-03	
978	7.500000e-01	2.000000e+00	3.041271e-03	
979	7.600000e-01	2.000000e+00	3.068119e-03	
980	7.700000e-01	2.000000e+00	3.094619e-03	
981	7.800000e-01	2.000000e+00	3.120772e-03	
982	7.900000e-01	2.000000e+00	3.146577e-03	

Index   v-sweep         v(g)            vs#branch       
--------------------------------------------------------------------------------
983	8.000000e-01	2.000000e+00	3.172036e-03	
984	8.100000e-01	2.000000e+00	3.197147e-03	
985	8.200000e-01	2.000000e+00	3.221912e-03	
986	8.300000e-01	2.000000e+00	3.246330e-03	
987	8.400000e-01	2.000000e+00	3.270401e-03	
988	8.500000e-01	2.000000e+00	3.294125e-03	
989	8.600000e-01	2.000000e+00	3.317502e-03	
990	8.700000e-01	2.000000e+00	3.340531e-03	
991	8.800000e-01	2.000000e+00	3.363213e-03	
992	8.900000e-01	2.000000e+00	3.385546e-03	
993	9.000000e-01	2.000000e+00	3.407532e-03	
994	9.100000e-01	2.000000e+00	3.429167e-03	
995	9.200000e-01	2.000000e+00	3.450453e-03	
996	9.300000e-01	2.000000e+00	3.471389e-03	
997	9.400000e-01	2.000000e+00	3.491972e-03	
998	9.500000e-01	2.000000e+00	3.512203e-03	
999	9.600000e-01	2.000000e+00	3.532080e-03	
1000	9.700000e-01	2.000000e+00	3.551602e-03	
1001	9.800000e-01	2.000000e+00	3.570767e-03	
1002	9.900000e-01	2.000000e+00	3.589573e-03	
1003	1.000000e+00	2.000000e+00	3.608019e-03	
1004	1.010000e+00	2.000000e+00	3.626102e-03	
1005	1.020000e+00	2.000000e+00	3.643820e-03	
1006	1.030000e+00	2.000000e+00	3.661171e-03	
1007	1.040000e+00	2.000000e+00	3.678151e-03	
1008	1.050000e+00	2.000000e+00	3.694758e-03	
1009	1.060000e+00	2.000000e+00	3.710988e-03	
1010	1.070000e+00	2.000000e+00	3.726838e-03	
1011	1.080000e+00	2.000000e+00	3.742305e-03	
1012	1.090000e+00	2.000000e+00	3.757384e-03	
1013	1.100000e+00	2.000000e+00	3.772071e-03	
1014	1.110000e+00	2.000000e+00	3.786364e-03	
1015	1.120000e+00	2.000000e+00	3.800257e-03	
1016	1.130000e+00	2.000000e+00	3.813746e-03	
1017	1.140000e+00	2.000000e+00	3.826829e-03	
1018	1.150000e+00	2.000000e+00	3.839502e-03	
1019	1.160000e+00	2.000000e+00	3.851761e-03	
1020	1.170000e+00	2.000000e+00	3.863605e-03	
1021	1.180000e+00	2.000000e+00	3.875032e-03	
1022	1.190000e+00	2.000000e+00	3.886042e-03	
1023	1.200000e+00	2.000000e+00	3.896635e-03	
1024	1.210000e+00	2.000000e+00	3.906813e-03	
1025	1.220000e+00	2.000000e+00	3.916578e-03	
1026	1.230000e+00	2.000000e+00	3.925936e-03	
1027	1.240000e+00	2.000000e+00	3.934893e-03	
1028	1.250000e+00	2.000000e+00	3.943455e-03	
1029	1.260000e+00	2.000000e+00	3.951632e-03	
1030	1.270000e+00	2.000000e+00	3.959434e-03	
1031	1.280000e+00	2.000000e+00	3.966873e-03	
1032	1.290000e+00	2.000000e+00	3.973961e-03	
1033	1.300000e+00	2.000000e+00	3.980711e-03	
1034	1.310000e+00	2.000000e+00	3.986981e-03	
1035	1.320000e+00	2.000000e+00	3.993113e-03	
1036	1.330000e+00	2.000000e+00	3.998952e-03	
1037	1.340000e+00	2.000000e+00	4.004515e-03	
1038	1.350000e+00	2.000000e+00	4.009816e-03	
1039	1.360000e+00	2.000000e+00	4.014992e-03	
1040	1.370000e+00	2.000000e+00	4.019808e-03	

Index   v-sweep         v(g)            vs#branch       
--------------------------------------------------------------------------------
1041	1.380000e+00	2.000000e+00	4.024408e-03	
1042	1.390000e+00	2.000000e+00	4.028805e-03	
1043	1.400000e+00	2.000000e+00	4.033014e-03	
1044	1.410000e+00	2.000000e+00	4.037051e-03	
1045	1.420000e+00	2.000000e+00	4.040932e-03	
1046	1.430000e+00	2.000000e+00	4.044676e-03	
1047	1.440000e+00	2.000000e+00	4.048311e-03	
1048	1.450000e+00	2.000000e+00	4.051887e-03	
1049	1.460000e+00	2.000000e+00	4.055525e-03	
1050	1.470000e+00	2.000000e+00	4.059638e-03	
1051	1.480000e+00	2.000000e+00	4.065967e-03	
1052	1.490000e+00	2.000000e+00	4.075835e-03	
1053	1.500000e+00	2.000000e+00	4.085587e-03	
1054	1.510000e+00	2.000000e+00	4.094973e-03	
1055	1.520000e+00	2.000000e+00	4.104168e-03	
1056	1.530000e+00	2.000000e+00	4.113201e-03	
1057	1.540000e+00	2.000000e+00	4.122078e-03	
1058	1.550000e+00	2.000000e+00	4.130803e-03	
1059	1.560000e+00	2.000000e+00	4.139383e-03	
1060	1.570000e+00	2.000000e+00	4.147822e-03	
1061	1.580000e+00	2.000000e+00	4.156125e-03	
1062	1.590000e+00	2.000000e+00	4.164298e-03	
1063	1.600000e+00	2.000000e+00	4.172345e-03	
1064	1.610000e+00	2.000000e+00	4.180271e-03	
1065	1.620000e+00	2.000000e+00	4.188080e-03	
1066	1.630000e+00	2.000000e+00	4.195777e-03	
1067	1.640000e+00	2.000000e+00	4.203450e-03	
1068	1.650000e+00	2.000000e+00	4.211142e-03	
1069	1.660000e+00	2.000000e+00	4.218776e-03	
1070	1.670000e+00	2.000000e+00	4.226338e-03	
1071	1.680000e+00	2.000000e+00	4.233818e-03	
1072	1.690000e+00	2.000000e+00	4.241210e-03	
1073	1.700000e+00	2.000000e+00	4.248508e-03	
1074	1.710000e+00	2.000000e+00	4.255710e-03	
1075	1.720000e+00	2.000000e+00	4.262814e-03	
1076	1.730000e+00	2.000000e+00	4.269819e-03	
1077	1.740000e+00	2.000000e+00	4.276725e-03	
1078	1.750000e+00	2.000000e+00	4.283534e-03	
1079	1.760000e+00	2.000000e+00	4.290244e-03	
1080	1.770000e+00	2.000000e+00	4.296858e-03	
1081	1.780000e+00	2.000000e+00	4.303377e-03	
1082	1.790000e+00	2.000000e+00	4.309802e-03	
1083	1.800000e+00	2.000000e+00	4.316135e-03	
1084	1.810000e+00	2.000000e+00	4.322377e-03	
1085	1.820000e+00	2.000000e+00	4.328530e-03	
1086	1.830000e+00	2.000000e+00	4.334595e-03	
1087	1.840000e+00	2.000000e+00	4.340575e-03	
1088	1.850000e+00	2.000000e+00	4.346471e-03	
1089	1.860000e+00	2.000000e+00	4.352284e-03	
1090	1.870000e+00	2.000000e+00	4.358017e-03	
1091	1.880000e+00	2.000000e+00	4.363670e-03	
1092	1.890000e+00	2.000000e+00	4.369247e-03	
1093	1.900000e+00	2.000000e+00	4.374747e-03	
1094	1.910000e+00	2.000000e+00	4.380173e-03	
1095	1.920000e+00	2.000000e+00	4.385527e-03	
1096	1.930000e+00	2.000000e+00	4.390809e-03	
1097	1.940000e+00	2.000000e+00	4.396022e-03	
1098	1.950000e+00	2.000000e+00	4.401166e-03	

Index   v-sweep         v(g)            vs#branch       
--------------------------------------------------------------------------------
1099	1.960000e+00	2.000000e+00	4.406244e-03	
1100	1.970000e+00	2.000000e+00	4.411256e-03	
1101	1.980000e+00	2.000000e+00	4.416205e-03	
1102	1.990000e+00	2.000000e+00	4.421090e-03	
1103	2.000000e+00	2.000000e+00	4.425914e-03	
1104	2.010000e+00	2.000000e+00	4.430678e-03	
1105	2.020000e+00	2.000000e+00	4.435382e-03	
1106	2.030000e+00	2.000000e+00	4.440029e-03	
1107	2.040000e+00	2.000000e+00	4.444619e-03	
1108	2.050000e+00	2.000000e+00	4.449154e-03	
1109	2.060000e+00	2.000000e+00	4.453634e-03	
1110	2.070000e+00	2.000000e+00	4.458060e-03	
1111	2.080000e+00	2.000000e+00	4.462435e-03	
1112	2.090000e+00	2.000000e+00	4.466758e-03	
1113	2.100000e+00	2.000000e+00	4.471030e-03	
1114	2.110000e+00	2.000000e+00	4.475253e-03	
1115	2.120000e+00	2.000000e+00	4.479428e-03	
1116	2.130000e+00	2.000000e+00	4.483554e-03	
1117	2.140000e+00	2.000000e+00	4.487635e-03	
1118	2.150000e+00	2.000000e+00	4.491669e-03	
1119	2.160000e+00	2.000000e+00	4.495658e-03	
1120	2.170000e+00	2.000000e+00	4.499603e-03	
1121	2.180000e+00	2.000000e+00	4.503504e-03	
1122	2.190000e+00	2.000000e+00	4.507363e-03	
1123	2.200000e+00	2.000000e+00	4.511180e-03	
1124	2.210000e+00	2.000000e+00	4.514955e-03	
1125	2.220000e+00	2.000000e+00	4.518690e-03	
1126	2.230000e+00	2.000000e+00	4.522385e-03	
1127	2.240000e+00	2.000000e+00	4.526041e-03	
1128	2.250000e+00	2.000000e+00	4.529658e-03	
1129	2.260000e+00	2.000000e+00	4.533237e-03	
1130	2.270000e+00	2.000000e+00	4.536779e-03	
1131	2.280000e+00	2.000000e+00	4.540284e-03	
1132	2.290000e+00	2.000000e+00	4.543753e-03	
1133	2.300000e+00	2.000000e+00	4.547187e-03	
1134	2.310000e+00	2.000000e+00	4.550585e-03	
1135	2.320000e+00	2.000000e+00	4.553949e-03	
1136	2.330000e+00	2.000000e+00	4.557278e-03	
1137	2.340000e+00	2.000000e+00	4.560574e-03	
1138	2.350000e+00	2.000000e+00	4.563837e-03	
1139	2.360000e+00	2.000000e+00	4.567068e-03	
1140	2.370000e+00	2.000000e+00	4.570266e-03	
1141	2.380000e+00	2.000000e+00	4.573432e-03	
1142	2.390000e+00	2.000000e+00	4.576568e-03	
1143	2.400000e+00	2.000000e+00	4.579672e-03	
1144	2.410000e+00	2.000000e+00	4.582746e-03	
1145	2.420000e+00	2.000000e+00	4.585790e-03	
1146	2.430000e+00	2.000000e+00	4.588804e-03	
1147	2.440000e+00	2.000000e+00	4.591789e-03	
1148	2.450000e+00	2.000000e+00	4.594745e-03	
1149	2.460000e+00	2.000000e+00	4.597673e-03	
1150	2.470000e+00	2.000000e+00	4.600572e-03	
1151	2.480000e+00	2.000000e+00	4.603443e-03	
1152	2.490000e+00	2.000000e+00	4.606287e-03	
1153	2.500000e+00	2.000000e+00	4.609104e-03	
1154	2.510000e+00	2.000000e+00	4.611893e-03	
1155	2.520000e+00	2.000000e+00	4.614656e-03	
1156	2.530000e+00	2.000000e+00	4.617393e-03	

Index   v-sweep         v(g)            vs#branch       
--------------------------------------------------------------------------------
1157	2.540000e+00	2.000000e+00	4.620103e-03	
1158	2.550000e+00	2.000000e+00	4.622788e-03	
1159	2.560000e+00	2.000000e+00	4.625447e-03	
1160	2.570000e+00	2.000000e+00	4.628082e-03	
1161	2.580000e+00	2.000000e+00	4.630691e-03	
1162	2.590000e+00	2.000000e+00	4.633275e-03	
1163	2.600000e+00	2.000000e+00	4.635835e-03	
1164	2.610000e+00	2.000000e+00	4.638371e-03	
1165	2.620000e+00	2.000000e+00	4.640883e-03	
1166	2.630000e+00	2.000000e+00	4.643371e-03	
1167	2.640000e+00	2.000000e+00	4.645835e-03	
1168	2.650000e+00	2.000000e+00	4.648277e-03	
1169	2.660000e+00	2.000000e+00	4.650695e-03	
1170	2.670000e+00	2.000000e+00	4.653090e-03	
1171	2.680000e+00	2.000000e+00	4.655463e-03	
1172	2.690000e+00	2.000000e+00	4.657814e-03	
1173	2.700000e+00	2.000000e+00	4.660142e-03	
1174	2.710000e+00	2.000000e+00	4.662449e-03	
1175	2.720000e+00	2.000000e+00	4.664734e-03	
1176	2.730000e+00	2.000000e+00	4.666997e-03	
1177	2.740000e+00	2.000000e+00	4.669239e-03	
1178	2.750000e+00	2.000000e+00	4.671460e-03	
1179	2.760000e+00	2.000000e+00	4.673660e-03	
1180	2.770000e+00	2.000000e+00	4.675840e-03	
1181	2.780000e+00	2.000000e+00	4.677999e-03	
1182	2.790000e+00	2.000000e+00	4.680138e-03	
1183	2.800000e+00	2.000000e+00	4.682257e-03	
1184	2.810000e+00	2.000000e+00	4.684356e-03	
1185	2.820000e+00	2.000000e+00	4.686435e-03	
1186	2.830000e+00	2.000000e+00	4.688495e-03	
1187	2.840000e+00	2.000000e+00	4.690536e-03	
1188	2.850000e+00	2.000000e+00	4.692558e-03	
1189	2.860000e+00	2.000000e+00	4.694561e-03	
1190	2.870000e+00	2.000000e+00	4.696546e-03	
1191	2.880000e+00	2.000000e+00	4.698513e-03	
1192	2.890000e+00	2.000000e+00	4.700461e-03	
1193	2.900000e+00	2.000000e+00	4.702392e-03	
1194	2.910000e+00	2.000000e+00	4.704305e-03	
1195	2.920000e+00	2.000000e+00	4.706201e-03	
1196	2.930000e+00	2.000000e+00	4.708080e-03	
1197	2.940000e+00	2.000000e+00	4.709942e-03	
1198	2.950000e+00	2.000000e+00	4.711787e-03	
1199	2.960000e+00	2.000000e+00	4.713616e-03	
1200	2.970000e+00	2.000000e+00	4.715429e-03	
1201	2.980000e+00	2.000000e+00	4.717226e-03	
1202	2.990000e+00	2.000000e+00	4.719007e-03	
1203	3.000000e+00	2.000000e+00	4.720774e-03	
1204	0.000000e+00	2.500000e+00	6.421455e-33	
1205	1.000000e-02	2.500000e+00	5.946712e-05	
1206	2.000000e-02	2.500000e+00	1.186031e-04	
1207	3.000000e-02	2.500000e+00	1.774084e-04	
1208	4.000000e-02	2.500000e+00	2.358836e-04	
1209	5.000000e-02	2.500000e+00	2.940291e-04	
1210	6.000000e-02	2.500000e+00	3.518455e-04	
1211	7.000000e-02	2.500000e+00	4.093333e-04	
1212	8.000000e-02	2.500000e+00	4.664929e-04	
1213	9.000000e-02	2.500000e+00	5.233249e-04	
1214	1.000000e-01	2.500000e+00	5.798297e-04	

Index   v-sweep         v(g)            vs#branch       
--------------------------------------------------------------------------------
1215	1.100000e-01	2.500000e+00	6.360079e-04	
1216	1.200000e-01	2.500000e+00	6.918600e-04	
1217	1.300000e-01	2.500000e+00	7.473864e-04	
1218	1.400000e-01	2.500000e+00	8.025876e-04	
1219	1.500000e-01	2.500000e+00	8.574642e-04	
1220	1.600000e-01	2.500000e+00	9.120167e-04	
1221	1.700000e-01	2.500000e+00	9.662454e-04	
1222	1.800000e-01	2.500000e+00	1.020312e-03	
1223	1.900000e-01	2.500000e+00	1.073895e-03	
1224	2.000000e-01	2.500000e+00	1.127156e-03	
1225	2.100000e-01	2.500000e+00	1.180094e-03	
1226	2.200000e-01	2.500000e+00	1.232712e-03	
1227	2.300000e-01	2.500000e+00	1.285008e-03	
1228	2.400000e-01	2.500000e+00	1.336985e-03	
1229	2.500000e-01	2.500000e+00	1.388641e-03	
1230	2.600000e-01	2.500000e+00	1.439979e-03	
1231	2.700000e-01	2.500000e+00	1.490997e-03	
1232	2.800000e-01	2.500000e+00	1.541698e-03	
1233	2.900000e-01	2.500000e+00	1.592080e-03	
1234	3.000000e-01	2.500000e+00	1.642145e-03	
1235	3.100000e-01	2.500000e+00	1.691893e-03	
1236	3.200000e-01	2.500000e+00	1.741324e-03	
1237	3.300000e-01	2.500000e+00	1.790440e-03	
1238	3.400000e-01	2.500000e+00	1.839240e-03	
1239	3.500000e-01	2.500000e+00	1.887725e-03	
1240	3.600000e-01	2.500000e+00	1.935895e-03	
1241	3.700000e-01	2.500000e+00	1.983752e-03	
1242	3.800000e-01	2.500000e+00	2.031294e-03	
1243	3.900000e-01	2.500000e+00	2.078524e-03	
1244	4.000000e-01	2.500000e+00	2.125441e-03	
1245	4.100000e-01	2.500000e+00	2.172045e-03	
1246	4.200000e-01	2.500000e+00	2.218338e-03	
1247	4.300000e-01	2.500000e+00	2.264320e-03	
1248	4.400000e-01	2.500000e+00	2.309990e-03	
1249	4.500000e-01	2.500000e+00	2.355350e-03	
1250	4.600000e-01	2.500000e+00	2.400401e-03	
1251	4.700000e-01	2.500000e+00	2.445141e-03	
1252	4.800000e-01	2.500000e+00	2.489573e-03	
1253	4.900000e-01	2.500000e+00	2.533696e-03	
1254	5.000000e-01	2.500000e+00	2.577511e-03	
1255	5.100000e-01	2.500000e+00	2.621018e-03	
1256	5.200000e-01	2.500000e+00	2.664218e-03	
1257	5.300000e-01	2.500000e+00	2.707111e-03	
1258	5.400000e-01	2.500000e+00	2.749697e-03	
1259	5.500000e-01	2.500000e+00	2.791978e-03	
1260	5.600000e-01	2.500000e+00	2.833953e-03	
1261	5.700000e-01	2.500000e+00	2.875623e-03	
1262	5.800000e-01	2.500000e+00	2.916988e-03	
1263	5.900000e-01	2.500000e+00	2.958049e-03	
1264	6.000000e-01	2.500000e+00	2.998806e-03	
1265	6.100000e-01	2.500000e+00	3.039260e-03	
1266	6.200000e-01	2.500000e+00	3.079411e-03	
1267	6.300000e-01	2.500000e+00	3.119259e-03	
1268	6.400000e-01	2.500000e+00	3.158806e-03	
1269	6.500000e-01	2.500000e+00	3.198050e-03	
1270	6.600000e-01	2.500000e+00	3.236993e-03	
1271	6.700000e-01	2.500000e+00	3.275635e-03	
1272	6.800000e-01	2.500000e+00	3.313977e-03	

Index   v-sweep         v(g)            vs#branch       
--------------------------------------------------------------------------------
1273	6.900000e-01	2.500000e+00	3.352019e-03	
1274	7.000000e-01	2.500000e+00	3.389761e-03	
1275	7.100000e-01	2.500000e+00	3.427204e-03	
1276	7.200000e-01	2.500000e+00	3.464348e-03	
1277	7.300000e-01	2.500000e+00	3.501193e-03	
1278	7.400000e-01	2.500000e+00	3.537740e-03	
1279	7.500000e-01	2.500000e+00	3.573989e-03	
1280	7.600000e-01	2.500000e+00	3.609941e-03	
1281	7.700000e-01	2.500000e+00	3.645597e-03	
1282	7.800000e-01	2.500000e+00	3.680955e-03	
1283	7.900000e-01	2.500000e+00	3.716017e-03	
1284	8.000000e-01	2.500000e+00	3.750783e-03	
1285	8.100000e-01	2.500000e+00	3.785254e-03	
1286	8.200000e-01	2.500000e+00	3.819429e-03	
1287	8.300000e-01	2.500000e+00	3.853310e-03	
1288	8.400000e-01	2.500000e+00	3.886896e-03	
1289	8.500000e-01	2.500000e+00	3.920187e-03	
1290	8.600000e-01	2.500000e+00	3.953185e-03	
1291	8.700000e-01	2.500000e+00	3.985890e-03	
1292	8.800000e-01	2.500000e+00	4.018300e-03	
1293	8.900000e-01	2.500000e+00	4.050418e-03	
1294	9.000000e-01	2.500000e+00	4.082243e-03	
1295	9.100000e-01	2.500000e+00	4.113776e-03	
1296	9.200000e-01	2.500000e+00	4.145017e-03	
1297	9.300000e-01	2.500000e+00	4.175965e-03	
1298	9.400000e-01	2.500000e+00	4.206622e-03	
1299	9.500000e-01	2.500000e+00	4.236987e-03	
1300	9.600000e-01	2.500000e+00	4.267061e-03	
1301	9.700000e-01	2.500000e+00	4.296844e-03	
1302	9.800000e-01	2.500000e+00	4.326336e-03	
1303	9.900000e-01	2.500000e+00	4.355537e-03	
1304	1.000000e+00	2.500000e+00	4.384448e-03	
1305	1.010000e+00	2.500000e+00	4.413068e-03	
1306	1.020000e+00	2.500000e+00	4.441398e-03	
1307	1.030000e+00	2.500000e+00	4.469437e-03	
1308	1.040000e+00	2.500000e+00	4.497186e-03	
1309	1.050000e+00	2.500000e+00	4.524645e-03	
1310	1.060000e+00	2.500000e+00	4.551814e-03	
1311	1.070000e+00	2.500000e+00	4.578693e-03	
1312	1.080000e+00	2.500000e+00	4.605281e-03	
1313	1.090000e+00	2.500000e+00	4.631578e-03	
1314	1.100000e+00	2.500000e+00	4.657585e-03	
1315	1.110000e+00	2.500000e+00	4.683302e-03	
1316	1.120000e+00	2.500000e+00	4.708727e-03	
1317	1.130000e+00	2.500000e+00	4.733861e-03	
1318	1.140000e+00	2.500000e+00	4.758703e-03	
1319	1.150000e+00	2.500000e+00	4.783253e-03	
1320	1.160000e+00	2.500000e+00	4.807511e-03	
1321	1.170000e+00	2.500000e+00	4.831476e-03	
1322	1.180000e+00	2.500000e+00	4.855147e-03	
1323	1.190000e+00	2.500000e+00	4.878524e-03	
1324	1.200000e+00	2.500000e+00	4.901606e-03	
1325	1.210000e+00	2.500000e+00	4.924392e-03	
1326	1.220000e+00	2.500000e+00	4.946881e-03	
1327	1.230000e+00	2.500000e+00	4.969073e-03	
1328	1.240000e+00	2.500000e+00	4.990965e-03	
1329	1.250000e+00	2.500000e+00	5.012557e-03	
1330	1.260000e+00	2.500000e+00	5.033847e-03	

Index   v-sweep         v(g)            vs#branch       
--------------------------------------------------------------------------------
1331	1.270000e+00	2.500000e+00	5.054834e-03	
1332	1.280000e+00	2.500000e+00	5.075516e-03	
1333	1.290000e+00	2.500000e+00	5.095890e-03	
1334	1.300000e+00	2.500000e+00	5.115956e-03	
1335	1.310000e+00	2.500000e+00	5.135711e-03	
1336	1.320000e+00	2.500000e+00	5.155152e-03	
1337	1.330000e+00	2.500000e+00	5.174276e-03	
1338	1.340000e+00	2.500000e+00	5.193082e-03	
1339	1.350000e+00	2.500000e+00	5.211565e-03	
1340	1.360000e+00	2.500000e+00	5.229723e-03	
1341	1.370000e+00	2.500000e+00	5.247552e-03	
1342	1.380000e+00	2.500000e+00	5.265048e-03	
1343	1.390000e+00	2.500000e+00	5.282208e-03	
1344	1.400000e+00	2.500000e+00	5.299027e-03	
1345	1.410000e+00	2.500000e+00	5.315501e-03	
1346	1.420000e+00	2.500000e+00	5.331625e-03	
1347	1.430000e+00	2.500000e+00	5.347395e-03	
1348	1.440000e+00	2.500000e+00	5.362806e-03	
1349	1.450000e+00	2.500000e+00	5.377853e-03	
1350	1.460000e+00	2.500000e+00	5.392532e-03	
1351	1.470000e+00	2.500000e+00	5.406838e-03	
1352	1.480000e+00	2.500000e+00	5.420766e-03	
1353	1.490000e+00	2.500000e+00	5.434313e-03	
1354	1.500000e+00	2.500000e+00	5.447474e-03	
1355	1.510000e+00	2.500000e+00	5.460247e-03	
1356	1.520000e+00	2.500000e+00	5.472628e-03	
1357	1.530000e+00	2.500000e+00	5.484420e-03	
1358	1.540000e+00	2.500000e+00	5.496019e-03	
1359	1.550000e+00	2.500000e+00	5.507226e-03	
1360	1.560000e+00	2.500000e+00	5.518042e-03	
1361	1.570000e+00	2.500000e+00	5.528470e-03	
1362	1.580000e+00	2.500000e+00	5.538705e-03	
1363	1.590000e+00	2.500000e+00	5.548367e-03	
1364	1.600000e+00	2.500000e+00	5.557655e-03	
1365	1.610000e+00	2.500000e+00	5.566579e-03	
1366	1.620000e+00	2.500000e+00	5.575149e-03	
1367	1.630000e+00	2.500000e+00	5.583377e-03	
1368	1.640000e+00	2.500000e+00	5.591280e-03	
1369	1.650000e+00	2.500000e+00	5.598882e-03	
1370	1.660000e+00	2.500000e+00	5.606221e-03	
1371	1.670000e+00	2.500000e+00	5.613377e-03	
1372	1.680000e+00	2.500000e+00	5.620580e-03	
1373	1.690000e+00	2.500000e+00	5.628762e-03	
1374	1.700000e+00	2.500000e+00	5.640631e-03	
1375	1.710000e+00	2.500000e+00	5.654006e-03	
1376	1.720000e+00	2.500000e+00	5.666740e-03	
1377	1.730000e+00	2.500000e+00	5.679123e-03	
1378	1.740000e+00	2.500000e+00	5.691239e-03	
1379	1.750000e+00	2.500000e+00	5.703101e-03	
1380	1.760000e+00	2.500000e+00	5.714718e-03	
1381	1.770000e+00	2.500000e+00	5.726098e-03	
1382	1.780000e+00	2.500000e+00	5.737250e-03	
1383	1.790000e+00	2.500000e+00	5.748183e-03	
1384	1.800000e+00	2.500000e+00	5.758905e-03	
1385	1.810000e+00	2.500000e+00	5.769424e-03	
1386	1.820000e+00	2.500000e+00	5.779750e-03	
1387	1.830000e+00	2.500000e+00	5.789888e-03	
1388	1.840000e+00	2.500000e+00	5.799847e-03	

Index   v-sweep         v(g)            vs#branch       
--------------------------------------------------------------------------------
1389	1.850000e+00	2.500000e+00	5.809707e-03	
1390	1.860000e+00	2.500000e+00	5.819554e-03	
1391	1.870000e+00	2.500000e+00	5.829293e-03	
1392	1.880000e+00	2.500000e+00	5.838909e-03	
1393	1.890000e+00	2.500000e+00	5.848393e-03	
1394	1.900000e+00	2.500000e+00	5.857738e-03	
1395	1.910000e+00	2.500000e+00	5.866942e-03	
1396	1.920000e+00	2.500000e+00	5.876003e-03	
1397	1.930000e+00	2.500000e+00	5.884920e-03	
1398	1.940000e+00	2.500000e+00	5.893696e-03	
1399	1.950000e+00	2.500000e+00	5.902330e-03	
1400	1.960000e+00	2.500000e+00	5.910825e-03	
1401	1.970000e+00	2.500000e+00	5.919184e-03	
1402	1.980000e+00	2.500000e+00	5.927408e-03	
1403	1.990000e+00	2.500000e+00	5.935501e-03	
1404	2.000000e+00	2.500000e+00	5.943466e-03	
1405	2.010000e+00	2.500000e+00	5.951304e-03	
1406	2.020000e+00	2.500000e+00	5.959019e-03	
1407	2.030000e+00	2.500000e+00	5.966614e-03	
1408	2.040000e+00	2.500000e+00	5.974092e-03	
1409	2.050000e+00	2.500000e+00	5.981455e-03	
1410	2.060000e+00	2.500000e+00	5.988706e-03	
1411	2.070000e+00	2.500000e+00	5.995848e-03	
1412	2.080000e+00	2.500000e+00	6.002884e-03	
1413	2.090000e+00	2.500000e+00	6.009816e-03	
1414	2.100000e+00	2.500000e+00	6.016646e-03	
1415	2.110000e+00	2.500000e+00	6.023377e-03	
1416	2.120000e+00	2.500000e+00	6.030012e-03	
1417	2.130000e+00	2.500000e+00	6.036552e-03	
1418	2.140000e+00	2.500000e+00	6.043000e-03	
1419	2.150000e+00	2.500000e+00	6.049359e-03	
1420	2.160000e+00	2.500000e+00	6.055629e-03	
1421	2.170000e+00	2.500000e+00	6.061814e-03	
1422	2.180000e+00	2.500000e+00	6.067915e-03	
1423	2.190000e+00	2.500000e+00	6.073934e-03	
1424	2.200000e+00	2.500000e+00	6.079873e-03	
1425	2.210000e+00	2.500000e+00	6.085734e-03	
1426	2.220000e+00	2.500000e+00	6.091519e-03	
1427	2.230000e+00	2.500000e+00	6.097228e-03	
1428	2.240000e+00	2.500000e+00	6.102865e-03	
1429	2.250000e+00	2.500000e+00	6.108430e-03	
1430	2.260000e+00	2.500000e+00	6.113925e-03	
1431	2.270000e+00	2.500000e+00	6.119351e-03	
1432	2.280000e+00	2.500000e+00	6.124711e-03	
1433	2.290000e+00	2.500000e+00	6.130005e-03	
1434	2.300000e+00	2.500000e+00	6.135234e-03	
1435	2.310000e+00	2.500000e+00	6.140401e-03	
1436	2.320000e+00	2.500000e+00	6.145505e-03	
1437	2.330000e+00	2.500000e+00	6.150550e-03	
1438	2.340000e+00	2.500000e+00	6.155535e-03	
1439	2.350000e+00	2.500000e+00	6.160461e-03	
1440	2.360000e+00	2.500000e+00	6.165331e-03	
1441	2.370000e+00	2.500000e+00	6.170145e-03	
1442	2.380000e+00	2.500000e+00	6.174904e-03	
1443	2.390000e+00	2.500000e+00	6.179609e-03	
1444	2.400000e+00	2.500000e+00	6.184261e-03	
1445	2.410000e+00	2.500000e+00	6.188862e-03	
1446	2.420000e+00	2.500000e+00	6.193411e-03	

Index   v-sweep         v(g)            vs#branch       
--------------------------------------------------------------------------------
1447	2.430000e+00	2.500000e+00	6.197910e-03	
1448	2.440000e+00	2.500000e+00	6.202360e-03	
1449	2.450000e+00	2.500000e+00	6.206762e-03	
1450	2.460000e+00	2.500000e+00	6.211116e-03	
1451	2.470000e+00	2.500000e+00	6.215424e-03	
1452	2.480000e+00	2.500000e+00	6.219685e-03	
1453	2.490000e+00	2.500000e+00	6.223901e-03	
1454	2.500000e+00	2.500000e+00	6.228073e-03	
1455	2.510000e+00	2.500000e+00	6.232201e-03	
1456	2.520000e+00	2.500000e+00	6.236286e-03	
1457	2.530000e+00	2.500000e+00	6.240329e-03	
1458	2.540000e+00	2.500000e+00	6.244329e-03	
1459	2.550000e+00	2.500000e+00	6.248289e-03	
1460	2.560000e+00	2.500000e+00	6.252208e-03	
1461	2.570000e+00	2.500000e+00	6.256086e-03	
1462	2.580000e+00	2.500000e+00	6.259926e-03	
1463	2.590000e+00	2.500000e+00	6.263727e-03	
1464	2.600000e+00	2.500000e+00	6.267489e-03	
1465	2.610000e+00	2.500000e+00	6.271213e-03	
1466	2.620000e+00	2.500000e+00	6.274901e-03	
1467	2.630000e+00	2.500000e+00	6.278551e-03	
1468	2.640000e+00	2.500000e+00	6.282165e-03	
1469	2.650000e+00	2.500000e+00	6.285743e-03	
1470	2.660000e+00	2.500000e+00	6.289286e-03	
1471	2.670000e+00	2.500000e+00	6.292793e-03	
1472	2.680000e+00	2.500000e+00	6.296267e-03	
1473	2.690000e+00	2.500000e+00	6.299705e-03	
1474	2.700000e+00	2.500000e+00	6.303111e-03	
1475	2.710000e+00	2.500000e+00	6.306482e-03	
1476	2.720000e+00	2.500000e+00	6.309821e-03	
1477	2.730000e+00	2.500000e+00	6.313127e-03	
1478	2.740000e+00	2.500000e+00	6.316401e-03	
1479	2.750000e+00	2.500000e+00	6.319643e-03	
1480	2.760000e+00	2.500000e+00	6.322854e-03	
1481	2.770000e+00	2.500000e+00	6.326033e-03	
1482	2.780000e+00	2.500000e+00	6.329181e-03	
1483	2.790000e+00	2.500000e+00	6.332299e-03	
1484	2.800000e+00	2.500000e+00	6.335386e-03	
1485	2.810000e+00	2.500000e+00	6.338444e-03	
1486	2.820000e+00	2.500000e+00	6.341472e-03	
1487	2.830000e+00	2.500000e+00	6.344470e-03	
1488	2.840000e+00	2.500000e+00	6.347439e-03	
1489	2.850000e+00	2.500000e+00	6.350380e-03	
1490	2.860000e+00	2.500000e+00	6.353292e-03	
1491	2.870000e+00	2.500000e+00	6.356176e-03	
1492	2.880000e+00	2.500000e+00	6.359032e-03	
1493	2.890000e+00	2.500000e+00	6.361860e-03	
1494	2.900000e+00	2.500000e+00	6.364661e-03	
1495	2.910000e+00	2.500000e+00	6.367435e-03	
1496	2.920000e+00	2.500000e+00	6.370182e-03	
1497	2.930000e+00	2.500000e+00	6.372903e-03	
1498	2.940000e+00	2.500000e+00	6.375597e-03	
1499	2.950000e+00	2.500000e+00	6.378265e-03	
1500	2.960000e+00	2.500000e+00	6.380907e-03	
1501	2.970000e+00	2.500000e+00	6.383524e-03	
1502	2.980000e+00	2.500000e+00	6.386116e-03	
1503	2.990000e+00	2.500000e+00	6.388682e-03	
1504	3.000000e+00	2.500000e+00	6.391225e-03	

Index   v-sweep         v(g)            vs#branch       
--------------------------------------------------------------------------------
1505	0.000000e+00	3.000000e+00	-5.180603e-33	
1506	1.000000e-02	3.000000e+00	6.230785e-05	
1507	2.000000e-02	3.000000e+00	1.243329e-04	
1508	3.000000e-02	3.000000e+00	1.860755e-04	
1509	4.000000e-02	3.000000e+00	2.475361e-04	
1510	5.000000e-02	3.000000e+00	3.087150e-04	
1511	6.000000e-02	3.000000e+00	3.696125e-04	
1512	7.000000e-02	3.000000e+00	4.302290e-04	
1513	8.000000e-02	3.000000e+00	4.905649e-04	
1514	9.000000e-02	3.000000e+00	5.506206e-04	
1515	1.000000e-01	3.000000e+00	6.103963e-04	
1516	1.100000e-01	3.000000e+00	6.698925e-04	
1517	1.200000e-01	3.000000e+00	7.291094e-04	
1518	1.300000e-01	3.000000e+00	7.880476e-04	
1519	1.400000e-01	3.000000e+00	8.467072e-04	
1520	1.500000e-01	3.000000e+00	9.050888e-04	
1521	1.600000e-01	3.000000e+00	9.631925e-04	
1522	1.700000e-01	3.000000e+00	1.021019e-03	
1523	1.800000e-01	3.000000e+00	1.078707e-03	
1524	1.900000e-01	3.000000e+00	1.135979e-03	
1525	2.000000e-01	3.000000e+00	1.192975e-03	
1526	2.100000e-01	3.000000e+00	1.249695e-03	
1527	2.200000e-01	3.000000e+00	1.306139e-03	
1528	2.300000e-01	3.000000e+00	1.362308e-03	
1529	2.400000e-01	3.000000e+00	1.418203e-03	
1530	2.500000e-01	3.000000e+00	1.473822e-03	
1531	2.600000e-01	3.000000e+00	1.529167e-03	
1532	2.700000e-01	3.000000e+00	1.584238e-03	
1533	2.800000e-01	3.000000e+00	1.639036e-03	
1534	2.900000e-01	3.000000e+00	1.693561e-03	
1535	3.000000e-01	3.000000e+00	1.747812e-03	
1536	3.100000e-01	3.000000e+00	1.801791e-03	
1537	3.200000e-01	3.000000e+00	1.855498e-03	
1538	3.300000e-01	3.000000e+00	1.908933e-03	
1539	3.400000e-01	3.000000e+00	1.962097e-03	
1540	3.500000e-01	3.000000e+00	2.014989e-03	
1541	3.600000e-01	3.000000e+00	2.067611e-03	
1542	3.700000e-01	3.000000e+00	2.119962e-03	
1543	3.800000e-01	3.000000e+00	2.172043e-03	
1544	3.900000e-01	3.000000e+00	2.223854e-03	
1545	4.000000e-01	3.000000e+00	2.275396e-03	
1546	4.100000e-01	3.000000e+00	2.326668e-03	
1547	4.200000e-01	3.000000e+00	2.377672e-03	
1548	4.300000e-01	3.000000e+00	2.428407e-03	
1549	4.400000e-01	3.000000e+00	2.478874e-03	
1550	4.500000e-01	3.000000e+00	2.529074e-03	
1551	4.600000e-01	3.000000e+00	2.579006e-03	
1552	4.700000e-01	3.000000e+00	2.628670e-03	
1553	4.800000e-01	3.000000e+00	2.678068e-03	
1554	4.900000e-01	3.000000e+00	2.727200e-03	
1555	5.000000e-01	3.000000e+00	2.776065e-03	
1556	5.100000e-01	3.000000e+00	2.824665e-03	
1557	5.200000e-01	3.000000e+00	2.872999e-03	
1558	5.300000e-01	3.000000e+00	2.921068e-03	
1559	5.400000e-01	3.000000e+00	2.968872e-03	
1560	5.500000e-01	3.000000e+00	3.016412e-03	
1561	5.600000e-01	3.000000e+00	3.063687e-03	
1562	5.700000e-01	3.000000e+00	3.110699e-03	

Index   v-sweep         v(g)            vs#branch       
--------------------------------------------------------------------------------
1563	5.800000e-01	3.000000e+00	3.157447e-03	
1564	5.900000e-01	3.000000e+00	3.203932e-03	
1565	6.000000e-01	3.000000e+00	3.250154e-03	
1566	6.100000e-01	3.000000e+00	3.296114e-03	
1567	6.200000e-01	3.000000e+00	3.341811e-03	
1568	6.300000e-01	3.000000e+00	3.387246e-03	
1569	6.400000e-01	3.000000e+00	3.432420e-03	
1570	6.500000e-01	3.000000e+00	3.477332e-03	
1571	6.600000e-01	3.000000e+00	3.521984e-03	
1572	6.700000e-01	3.000000e+00	3.566375e-03	
1573	6.800000e-01	3.000000e+00	3.610505e-03	
1574	6.900000e-01	3.000000e+00	3.654375e-03	
1575	7.000000e-01	3.000000e+00	3.697986e-03	
1576	7.100000e-01	3.000000e+00	3.741337e-03	
1577	7.200000e-01	3.000000e+00	3.784430e-03	
1578	7.300000e-01	3.000000e+00	3.827263e-03	
1579	7.400000e-01	3.000000e+00	3.869838e-03	
1580	7.500000e-01	3.000000e+00	3.912155e-03	
1581	7.600000e-01	3.000000e+00	3.954213e-03	
1582	7.700000e-01	3.000000e+00	3.996015e-03	
1583	7.800000e-01	3.000000e+00	4.037559e-03	
1584	7.900000e-01	3.000000e+00	4.078846e-03	
1585	8.000000e-01	3.000000e+00	4.119876e-03	
1586	8.100000e-01	3.000000e+00	4.160650e-03	
1587	8.200000e-01	3.000000e+00	4.201167e-03	
1588	8.300000e-01	3.000000e+00	4.241429e-03	
1589	8.400000e-01	3.000000e+00	4.281436e-03	
1590	8.500000e-01	3.000000e+00	4.321187e-03	
1591	8.600000e-01	3.000000e+00	4.360683e-03	
1592	8.700000e-01	3.000000e+00	4.399925e-03	
1593	8.800000e-01	3.000000e+00	4.438912e-03	
1594	8.900000e-01	3.000000e+00	4.477646e-03	
1595	9.000000e-01	3.000000e+00	4.516125e-03	
1596	9.100000e-01	3.000000e+00	4.554351e-03	
1597	9.200000e-01	3.000000e+00	4.592324e-03	
1598	9.300000e-01	3.000000e+00	4.630043e-03	
1599	9.400000e-01	3.000000e+00	4.667510e-03	
1600	9.500000e-01	3.000000e+00	4.704725e-03	
1601	9.600000e-01	3.000000e+00	4.741687e-03	
1602	9.700000e-01	3.000000e+00	4.778397e-03	
1603	9.800000e-01	3.000000e+00	4.814856e-03	
1604	9.900000e-01	3.000000e+00	4.851063e-03	
1605	1.000000e+00	3.000000e+00	4.887019e-03	
1606	1.010000e+00	3.000000e+00	4.922725e-03	
1607	1.020000e+00	3.000000e+00	4.958179e-03	
1608	1.030000e+00	3.000000e+00	4.993384e-03	
1609	1.040000e+00	3.000000e+00	5.028338e-03	
1610	1.050000e+00	3.000000e+00	5.063042e-03	
1611	1.060000e+00	3.000000e+00	5.097496e-03	
1612	1.070000e+00	3.000000e+00	5.131701e-03	
1613	1.080000e+00	3.000000e+00	5.165656e-03	
1614	1.090000e+00	3.000000e+00	5.199363e-03	
1615	1.100000e+00	3.000000e+00	5.232821e-03	
1616	1.110000e+00	3.000000e+00	5.266030e-03	
1617	1.120000e+00	3.000000e+00	5.298990e-03	
1618	1.130000e+00	3.000000e+00	5.331703e-03	
1619	1.140000e+00	3.000000e+00	5.364167e-03	
1620	1.150000e+00	3.000000e+00	5.396383e-03	

Index   v-sweep         v(g)            vs#branch       
--------------------------------------------------------------------------------
1621	1.160000e+00	3.000000e+00	5.428352e-03	
1622	1.170000e+00	3.000000e+00	5.460073e-03	
1623	1.180000e+00	3.000000e+00	5.491547e-03	
1624	1.190000e+00	3.000000e+00	5.522773e-03	
1625	1.200000e+00	3.000000e+00	5.553753e-03	
1626	1.210000e+00	3.000000e+00	5.584485e-03	
1627	1.220000e+00	3.000000e+00	5.614970e-03	
1628	1.230000e+00	3.000000e+00	5.645209e-03	
1629	1.240000e+00	3.000000e+00	5.675201e-03	
1630	1.250000e+00	3.000000e+00	5.704946e-03	
1631	1.260000e+00	3.000000e+00	5.734445e-03	
1632	1.270000e+00	3.000000e+00	5.763698e-03	
1633	1.280000e+00	3.000000e+00	5.792703e-03	
1634	1.290000e+00	3.000000e+00	5.821463e-03	
1635	1.300000e+00	3.000000e+00	5.849976e-03	
1636	1.310000e+00	3.000000e+00	5.878242e-03	
1637	1.320000e+00	3.000000e+00	5.906262e-03	
1638	1.330000e+00	3.000000e+00	5.934036e-03	
1639	1.340000e+00	3.000000e+00	5.961563e-03	
1640	1.350000e+00	3.000000e+00	5.988843e-03	
1641	1.360000e+00	3.000000e+00	6.015876e-03	
1642	1.370000e+00	3.000000e+00	6.042662e-03	
1643	1.380000e+00	3.000000e+00	6.069201e-03	
1644	1.390000e+00	3.000000e+00	6.095493e-03	
1645	1.400000e+00	3.000000e+00	6.121536e-03	
1646	1.410000e+00	3.000000e+00	6.147332e-03	
1647	1.420000e+00	3.000000e+00	6.172879e-03	
1648	1.430000e+00	3.000000e+00	6.198178e-03	
1649	1.440000e+00	3.000000e+00	6.223227e-03	
1650	1.450000e+00	3.000000e+00	6.248027e-03	
1651	1.460000e+00	3.000000e+00	6.272576e-03	
1652	1.470000e+00	3.000000e+00	6.296875e-03	
1653	1.480000e+00	3.000000e+00	6.320922e-03	
1654	1.490000e+00	3.000000e+00	6.344717e-03	
1655	1.500000e+00	3.000000e+00	6.368260e-03	
1656	1.510000e+00	3.000000e+00	6.391548e-03	
1657	1.520000e+00	3.000000e+00	6.414581e-03	
1658	1.530000e+00	3.000000e+00	6.437359e-03	
1659	1.540000e+00	3.000000e+00	6.459880e-03	
1660	1.550000e+00	3.000000e+00	6.482143e-03	
1661	1.560000e+00	3.000000e+00	6.504146e-03	
1662	1.570000e+00	3.000000e+00	6.525888e-03	
1663	1.580000e+00	3.000000e+00	6.547368e-03	
1664	1.590000e+00	3.000000e+00	6.568583e-03	
1665	1.600000e+00	3.000000e+00	6.589532e-03	
1666	1.610000e+00	3.000000e+00	6.610214e-03	
1667	1.620000e+00	3.000000e+00	6.630625e-03	
1668	1.630000e+00	3.000000e+00	6.650763e-03	
1669	1.640000e+00	3.000000e+00	6.670627e-03	
1670	1.650000e+00	3.000000e+00	6.690212e-03	
1671	1.660000e+00	3.000000e+00	6.709518e-03	
1672	1.670000e+00	3.000000e+00	6.728540e-03	
1673	1.680000e+00	3.000000e+00	6.747275e-03	
1674	1.690000e+00	3.000000e+00	6.765719e-03	
1675	1.700000e+00	3.000000e+00	6.783871e-03	
1676	1.710000e+00	3.000000e+00	6.801724e-03	
1677	1.720000e+00	3.000000e+00	6.819276e-03	
1678	1.730000e+00	3.000000e+00	6.836522e-03	

Index   v-sweep         v(g)            vs#branch       
--------------------------------------------------------------------------------
1679	1.740000e+00	3.000000e+00	6.853457e-03	
1680	1.750000e+00	3.000000e+00	6.870078e-03	
1681	1.760000e+00	3.000000e+00	6.886380e-03	
1682	1.770000e+00	3.000000e+00	6.902197e-03	
1683	1.780000e+00	3.000000e+00	6.917850e-03	
1684	1.790000e+00	3.000000e+00	6.933172e-03	
1685	1.800000e+00	3.000000e+00	6.948157e-03	
1686	1.810000e+00	3.000000e+00	6.962973e-03	
1687	1.820000e+00	3.000000e+00	6.977275e-03	
1688	1.830000e+00	3.000000e+00	6.991231e-03	
1689	1.840000e+00	3.000000e+00	7.004836e-03	
1690	1.850000e+00	3.000000e+00	7.018090e-03	
1691	1.860000e+00	3.000000e+00	7.030994e-03	
1692	1.870000e+00	3.000000e+00	7.043553e-03	
1693	1.880000e+00	3.000000e+00	7.055778e-03	
1694	1.890000e+00	3.000000e+00	7.067699e-03	
1695	1.900000e+00	3.000000e+00	7.079396e-03	
1696	1.910000e+00	3.000000e+00	7.091137e-03	
1697	1.920000e+00	3.000000e+00	7.104155e-03	
1698	1.930000e+00	3.000000e+00	7.121250e-03	
1699	1.940000e+00	3.000000e+00	7.138984e-03	
1700	1.950000e+00	3.000000e+00	7.156016e-03	
1701	1.960000e+00	3.000000e+00	7.172645e-03	
1702	1.970000e+00	3.000000e+00	7.188924e-03	
1703	1.980000e+00	3.000000e+00	7.204859e-03	
1704	1.990000e+00	3.000000e+00	7.220456e-03	
1705	2.000000e+00	3.000000e+00	7.235719e-03	
1706	2.010000e+00	3.000000e+00	7.250654e-03	
1707	2.020000e+00	3.000000e+00	7.265269e-03	
1708	2.030000e+00	3.000000e+00	7.279570e-03	
1709	2.040000e+00	3.000000e+00	7.293566e-03	
1710	2.050000e+00	3.000000e+00	7.307264e-03	
1711	2.060000e+00	3.000000e+00	7.320674e-03	
1712	2.070000e+00	3.000000e+00	7.333831e-03	
1713	2.080000e+00	3.000000e+00	7.346916e-03	
1714	2.090000e+00	3.000000e+00	7.359801e-03	
1715	2.100000e+00	3.000000e+00	7.372468e-03	
1716	2.110000e+00	3.000000e+00	7.384908e-03	
1717	2.120000e+00	3.000000e+00	7.397117e-03	
1718	2.130000e+00	3.000000e+00	7.409092e-03	
1719	2.140000e+00	3.000000e+00	7.420836e-03	
1720	2.150000e+00	3.000000e+00	7.432349e-03	
1721	2.160000e+00	3.000000e+00	7.443635e-03	
1722	2.170000e+00	3.000000e+00	7.454700e-03	
1723	2.180000e+00	3.000000e+00	7.465547e-03	
1724	2.190000e+00	3.000000e+00	7.476182e-03	
1725	2.200000e+00	3.000000e+00	7.486610e-03	
1726	2.210000e+00	3.000000e+00	7.496837e-03	
1727	2.220000e+00	3.000000e+00	7.506869e-03	
1728	2.230000e+00	3.000000e+00	7.516711e-03	
1729	2.240000e+00	3.000000e+00	7.526369e-03	
1730	2.250000e+00	3.000000e+00	7.535848e-03	
1731	2.260000e+00	3.000000e+00	7.545153e-03	
1732	2.270000e+00	3.000000e+00	7.554290e-03	
1733	2.280000e+00	3.000000e+00	7.563264e-03	
1734	2.290000e+00	3.000000e+00	7.572080e-03	
1735	2.300000e+00	3.000000e+00	7.580743e-03	
1736	2.310000e+00	3.000000e+00	7.589256e-03	

Index   v-sweep         v(g)            vs#branch       
--------------------------------------------------------------------------------
1737	2.320000e+00	3.000000e+00	7.597625e-03	
1738	2.330000e+00	3.000000e+00	7.605855e-03	
1739	2.340000e+00	3.000000e+00	7.613948e-03	
1740	2.350000e+00	3.000000e+00	7.621909e-03	
1741	2.360000e+00	3.000000e+00	7.629742e-03	
1742	2.370000e+00	3.000000e+00	7.637451e-03	
1743	2.380000e+00	3.000000e+00	7.645039e-03	
1744	2.390000e+00	3.000000e+00	7.652510e-03	
1745	2.400000e+00	3.000000e+00	7.659867e-03	
1746	2.410000e+00	3.000000e+00	7.667112e-03	
1747	2.420000e+00	3.000000e+00	7.674250e-03	
1748	2.430000e+00	3.000000e+00	7.681283e-03	
1749	2.440000e+00	3.000000e+00	7.688213e-03	
1750	2.450000e+00	3.000000e+00	7.695045e-03	
1751	2.460000e+00	3.000000e+00	7.701779e-03	
1752	2.470000e+00	3.000000e+00	7.708419e-03	
1753	2.480000e+00	3.000000e+00	7.714967e-03	
1754	2.490000e+00	3.000000e+00	7.721426e-03	
1755	2.500000e+00	3.000000e+00	7.727797e-03	
1756	2.510000e+00	3.000000e+00	7.734083e-03	
1757	2.520000e+00	3.000000e+00	7.740286e-03	
1758	2.530000e+00	3.000000e+00	7.746408e-03	
1759	2.540000e+00	3.000000e+00	7.752450e-03	
1760	2.550000e+00	3.000000e+00	7.758415e-03	
1761	2.560000e+00	3.000000e+00	7.764305e-03	
1762	2.570000e+00	3.000000e+00	7.770120e-03	
1763	2.580000e+00	3.000000e+00	7.775863e-03	
1764	2.590000e+00	3.000000e+00	7.781536e-03	
1765	2.600000e+00	3.000000e+00	7.787139e-03	
1766	2.610000e+00	3.000000e+00	7.792675e-03	
1767	2.620000e+00	3.000000e+00	7.798144e-03	
1768	2.630000e+00	3.000000e+00	7.803549e-03	
1769	2.640000e+00	3.000000e+00	7.808890e-03	
1770	2.650000e+00	3.000000e+00	7.814169e-03	
1771	2.660000e+00	3.000000e+00	7.819387e-03	
1772	2.670000e+00	3.000000e+00	7.824544e-03	
1773	2.680000e+00	3.000000e+00	7.829643e-03	
1774	2.690000e+00	3.000000e+00	7.834685e-03	
1775	2.700000e+00	3.000000e+00	7.839670e-03	
1776	2.710000e+00	3.000000e+00	7.844599e-03	
1777	2.720000e+00	3.000000e+00	7.849474e-03	
1778	2.730000e+00	3.000000e+00	7.854296e-03	
1779	2.740000e+00	3.000000e+00	7.859065e-03	
1780	2.750000e+00	3.000000e+00	7.863782e-03	
1781	2.760000e+00	3.000000e+00	7.868448e-03	
1782	2.770000e+00	3.000000e+00	7.873064e-03	
1783	2.780000e+00	3.000000e+00	7.877631e-03	
1784	2.790000e+00	3.000000e+00	7.882149e-03	
1785	2.800000e+00	3.000000e+00	7.886620e-03	
1786	2.810000e+00	3.000000e+00	7.891044e-03	
1787	2.820000e+00	3.000000e+00	7.895421e-03	
1788	2.830000e+00	3.000000e+00	7.899753e-03	
1789	2.840000e+00	3.000000e+00	7.904041e-03	
1790	2.850000e+00	3.000000e+00	7.908283e-03	
1791	2.860000e+00	3.000000e+00	7.912483e-03	
1792	2.870000e+00	3.000000e+00	7.916639e-03	
1793	2.880000e+00	3.000000e+00	7.920752e-03	
1794	2.890000e+00	3.000000e+00	7.924824e-03	

Index   v-sweep         v(g)            vs#branch       
--------------------------------------------------------------------------------
1795	2.900000e+00	3.000000e+00	7.928854e-03	
1796	2.910000e+00	3.000000e+00	7.932844e-03	
1797	2.920000e+00	3.000000e+00	7.936793e-03	
1798	2.930000e+00	3.000000e+00	7.940702e-03	
1799	2.940000e+00	3.000000e+00	7.944572e-03	
1800	2.950000e+00	3.000000e+00	7.948404e-03	
1801	2.960000e+00	3.000000e+00	7.952196e-03	
1802	2.970000e+00	3.000000e+00	7.955951e-03	
1803	2.980000e+00	3.000000e+00	7.959668e-03	
1804	2.990000e+00	3.000000e+00	7.963348e-03	
1805	3.000000e+00	3.000000e+00	7.966992e-03	




