
Circuit: *model = BSIMSOI (DD)

Doing analysis at TEMP = 300.150000 and TNOM = 300.150000

Warning: Pd = 0 is less than W.
Warning: Ps = 0 is less than W.

                             *model = BSIMSOI (DD)
                             DC transfer characteristic  Sat Aug 27 15:56:51  2005
--------------------------------------------------------------------------------
Index   v-sweep         v(g)            vs#branch       
--------------------------------------------------------------------------------
0	0.000000e+00	5.000000e-01	-5.161596e-35	
1	1.000000e-02	5.000000e-01	3.628821e-06	
2	2.000000e-02	5.000000e-01	6.866714e-06	
3	3.000000e-02	5.000000e-01	9.721321e-06	
4	4.000000e-02	5.000000e-01	1.220246e-05	
5	5.000000e-02	5.000000e-01	1.432317e-05	
6	6.000000e-02	5.000000e-01	1.610108e-05	
7	7.000000e-02	5.000000e-01	1.755994e-05	
8	8.000000e-02	5.000000e-01	1.873090e-05	
9	9.000000e-02	5.000000e-01	1.965237e-05	
10	1.000000e-01	5.000000e-01	2.036791e-05	
11	1.100000e-01	5.000000e-01	2.092197e-05	
12	1.200000e-01	5.000000e-01	2.135522e-05	
13	1.300000e-01	5.000000e-01	2.170127e-05	
14	1.400000e-01	5.000000e-01	2.198575e-05	
15	1.500000e-01	5.000000e-01	2.222712e-05	
16	1.600000e-01	5.000000e-01	2.243823e-05	
17	1.700000e-01	5.000000e-01	2.262788e-05	
18	1.800000e-01	5.000000e-01	2.280209e-05	
19	1.900000e-01	5.000000e-01	2.296503e-05	
20	2.000000e-01	5.000000e-01	2.311958e-05	
21	2.100000e-01	5.000000e-01	2.326779e-05	
22	2.200000e-01	5.000000e-01	2.341114e-05	
23	2.300000e-01	5.000000e-01	2.355068e-05	
24	2.400000e-01	5.000000e-01	2.368723e-05	
25	2.500000e-01	5.000000e-01	2.382139e-05	
26	2.600000e-01	5.000000e-01	2.395361e-05	
27	2.700000e-01	5.000000e-01	2.408425e-05	
28	2.800000e-01	5.000000e-01	2.421360e-05	
29	2.900000e-01	5.000000e-01	2.434186e-05	
30	3.000000e-01	5.000000e-01	2.446923e-05	
31	3.100000e-01	5.000000e-01	2.459584e-05	
32	3.200000e-01	5.000000e-01	2.472182e-05	
33	3.300000e-01	5.000000e-01	2.484726e-05	
34	3.400000e-01	5.000000e-01	2.497225e-05	
35	3.500000e-01	5.000000e-01	2.509684e-05	
36	3.600000e-01	5.000000e-01	2.522111e-05	
37	3.700000e-01	5.000000e-01	2.534509e-05	
38	3.800000e-01	5.000000e-01	2.546884e-05	
39	3.900000e-01	5.000000e-01	2.559238e-05	
40	4.000000e-01	5.000000e-01	2.571575e-05	
41	4.100000e-01	5.000000e-01	2.583898e-05	
42	4.200000e-01	5.000000e-01	2.596209e-05	
43	4.300000e-01	5.000000e-01	2.608509e-05	
44	4.400000e-01	5.000000e-01	2.620801e-05	
45	4.500000e-01	5.000000e-01	2.633087e-05	
46	4.600000e-01	5.000000e-01	2.645368e-05	
47	4.700000e-01	5.000000e-01	2.657645e-05	
48	4.800000e-01	5.000000e-01	2.669919e-05	
49	4.900000e-01	5.000000e-01	2.682191e-05	
50	5.000000e-01	5.000000e-01	2.694463e-05	
51	5.100000e-01	5.000000e-01	2.706734e-05	
52	5.200000e-01	5.000000e-01	2.719007e-05	
53	5.300000e-01	5.000000e-01	2.731281e-05	
54	5.400000e-01	5.000000e-01	2.743557e-05	

Index   v-sweep         v(g)            vs#branch       
--------------------------------------------------------------------------------
55	5.500000e-01	5.000000e-01	2.755835e-05	
56	5.600000e-01	5.000000e-01	2.768117e-05	
57	5.700000e-01	5.000000e-01	2.780403e-05	
58	5.800000e-01	5.000000e-01	2.792693e-05	
59	5.900000e-01	5.000000e-01	2.804987e-05	
60	6.000000e-01	5.000000e-01	2.817286e-05	
61	6.100000e-01	5.000000e-01	2.829590e-05	
62	6.200000e-01	5.000000e-01	2.841900e-05	
63	6.300000e-01	5.000000e-01	2.854215e-05	
64	6.400000e-01	5.000000e-01	2.866536e-05	
65	6.500000e-01	5.000000e-01	2.878865e-05	
66	6.600000e-01	5.000000e-01	2.891200e-05	
67	6.700000e-01	5.000000e-01	2.903542e-05	
68	6.800000e-01	5.000000e-01	2.915892e-05	
69	6.900000e-01	5.000000e-01	2.928250e-05	
70	7.000000e-01	5.000000e-01	2.940617e-05	
71	7.100000e-01	5.000000e-01	2.952995e-05	
72	7.200000e-01	5.000000e-01	2.965384e-05	
73	7.300000e-01	5.000000e-01	2.977787e-05	
74	7.400000e-01	5.000000e-01	2.990204e-05	
75	7.500000e-01	5.000000e-01	3.002638e-05	
76	7.600000e-01	5.000000e-01	3.015091e-05	
77	7.700000e-01	5.000000e-01	3.027565e-05	
78	7.800000e-01	5.000000e-01	3.040061e-05	
79	7.900000e-01	5.000000e-01	3.052581e-05	
80	8.000000e-01	5.000000e-01	3.065127e-05	
81	8.100000e-01	5.000000e-01	3.077703e-05	
82	8.200000e-01	5.000000e-01	3.090314e-05	
83	8.300000e-01	5.000000e-01	3.102967e-05	
84	8.400000e-01	5.000000e-01	3.115673e-05	
85	8.500000e-01	5.000000e-01	3.128448e-05	
86	8.600000e-01	5.000000e-01	3.141320e-05	
87	8.700000e-01	5.000000e-01	3.154331e-05	
88	8.800000e-01	5.000000e-01	3.167565e-05	
89	8.900000e-01	5.000000e-01	3.181185e-05	
90	9.000000e-01	5.000000e-01	3.195572e-05	
91	9.100000e-01	5.000000e-01	3.211788e-05	
92	9.200000e-01	5.000000e-01	3.233415e-05	
93	9.300000e-01	5.000000e-01	3.268784e-05	
94	9.400000e-01	5.000000e-01	3.315744e-05	
95	9.500000e-01	5.000000e-01	3.363908e-05	
96	9.600000e-01	5.000000e-01	3.410684e-05	
97	9.700000e-01	5.000000e-01	3.456930e-05	
98	9.800000e-01	5.000000e-01	3.504589e-05	
99	9.900000e-01	5.000000e-01	3.556360e-05	
100	1.000000e+00	5.000000e-01	3.615687e-05	
101	1.010000e+00	5.000000e-01	3.686245e-05	
102	1.020000e+00	5.000000e-01	3.770443e-05	
103	1.030000e+00	5.000000e-01	3.868068e-05	
104	1.040000e+00	5.000000e-01	3.976837e-05	
105	1.050000e+00	5.000000e-01	4.094050e-05	
106	1.060000e+00	5.000000e-01	4.217556e-05	
107	1.070000e+00	5.000000e-01	4.345876e-05	
108	1.080000e+00	5.000000e-01	4.478040e-05	
109	1.090000e+00	5.000000e-01	4.613406e-05	
110	1.100000e+00	5.000000e-01	4.751535e-05	
111	1.110000e+00	5.000000e-01	4.892760e-05	
112	1.120000e+00	5.000000e-01	5.037555e-05	

Index   v-sweep         v(g)            vs#branch       
--------------------------------------------------------------------------------
113	1.130000e+00	5.000000e-01	5.185403e-05	
114	1.140000e+00	5.000000e-01	5.335897e-05	
115	1.150000e+00	5.000000e-01	5.488717e-05	
116	1.160000e+00	5.000000e-01	5.643604e-05	
117	1.170000e+00	5.000000e-01	5.800344e-05	
118	1.180000e+00	5.000000e-01	5.958757e-05	
119	1.190000e+00	5.000000e-01	6.118688e-05	
120	1.200000e+00	5.000000e-01	6.280003e-05	
121	1.210000e+00	5.000000e-01	6.442581e-05	
122	1.220000e+00	5.000000e-01	6.606317e-05	
123	1.230000e+00	5.000000e-01	6.771114e-05	
124	1.240000e+00	5.000000e-01	6.936884e-05	
125	1.250000e+00	5.000000e-01	7.103547e-05	
126	1.260000e+00	5.000000e-01	7.271028e-05	
127	1.270000e+00	5.000000e-01	7.439258e-05	
128	1.280000e+00	5.000000e-01	7.608173e-05	
129	1.290000e+00	5.000000e-01	7.777712e-05	
130	1.300000e+00	5.000000e-01	7.947818e-05	
131	1.310000e+00	5.000000e-01	8.118438e-05	
132	1.320000e+00	5.000000e-01	8.289520e-05	
133	1.330000e+00	5.000000e-01	8.461016e-05	
134	1.340000e+00	5.000000e-01	8.632882e-05	
135	1.350000e+00	5.000000e-01	8.805074e-05	
136	1.360000e+00	5.000000e-01	8.977551e-05	
137	1.370000e+00	5.000000e-01	9.150273e-05	
138	1.380000e+00	5.000000e-01	9.323204e-05	
139	1.390000e+00	5.000000e-01	9.496308e-05	
140	1.400000e+00	5.000000e-01	9.669551e-05	
141	1.410000e+00	5.000000e-01	9.842901e-05	
142	1.420000e+00	5.000000e-01	1.001633e-04	
143	1.430000e+00	5.000000e-01	1.018980e-04	
144	1.440000e+00	5.000000e-01	1.036329e-04	
145	1.450000e+00	5.000000e-01	1.053677e-04	
146	1.460000e+00	5.000000e-01	1.071022e-04	
147	1.470000e+00	5.000000e-01	1.088361e-04	
148	1.480000e+00	5.000000e-01	1.105692e-04	
149	1.490000e+00	5.000000e-01	1.123012e-04	
150	1.500000e+00	5.000000e-01	1.140320e-04	
151	1.510000e+00	5.000000e-01	1.157613e-04	
152	1.520000e+00	5.000000e-01	1.174890e-04	
153	1.530000e+00	5.000000e-01	1.192148e-04	
154	1.540000e+00	5.000000e-01	1.209386e-04	
155	1.550000e+00	5.000000e-01	1.226602e-04	
156	1.560000e+00	5.000000e-01	1.243795e-04	
157	1.570000e+00	5.000000e-01	1.260962e-04	
158	1.580000e+00	5.000000e-01	1.278103e-04	
159	1.590000e+00	5.000000e-01	1.295216e-04	
160	1.600000e+00	5.000000e-01	1.312299e-04	
161	1.610000e+00	5.000000e-01	1.329352e-04	
162	1.620000e+00	5.000000e-01	1.346373e-04	
163	1.630000e+00	5.000000e-01	1.363361e-04	
164	1.640000e+00	5.000000e-01	1.380315e-04	
165	1.650000e+00	5.000000e-01	1.397234e-04	
166	1.660000e+00	5.000000e-01	1.414116e-04	
167	1.670000e+00	5.000000e-01	1.430962e-04	
168	1.680000e+00	5.000000e-01	1.447769e-04	
169	1.690000e+00	5.000000e-01	1.464537e-04	
170	1.700000e+00	5.000000e-01	1.481265e-04	

Index   v-sweep         v(g)            vs#branch       
--------------------------------------------------------------------------------
171	1.710000e+00	5.000000e-01	1.497952e-04	
172	1.720000e+00	5.000000e-01	1.514598e-04	
173	1.730000e+00	5.000000e-01	1.531202e-04	
174	1.740000e+00	5.000000e-01	1.547763e-04	
175	1.750000e+00	5.000000e-01	1.564281e-04	
176	1.760000e+00	5.000000e-01	1.580754e-04	
177	1.770000e+00	5.000000e-01	1.597183e-04	
178	1.780000e+00	5.000000e-01	1.613567e-04	
179	1.790000e+00	5.000000e-01	1.629904e-04	
180	1.800000e+00	5.000000e-01	1.646196e-04	
181	1.810000e+00	5.000000e-01	1.662440e-04	
182	1.820000e+00	5.000000e-01	1.678638e-04	
183	1.830000e+00	5.000000e-01	1.694788e-04	
184	1.840000e+00	5.000000e-01	1.710889e-04	
185	1.850000e+00	5.000000e-01	1.726942e-04	
186	1.860000e+00	5.000000e-01	1.742947e-04	
187	1.870000e+00	5.000000e-01	1.758902e-04	
188	1.880000e+00	5.000000e-01	1.774808e-04	
189	1.890000e+00	5.000000e-01	1.790664e-04	
190	1.900000e+00	5.000000e-01	1.806470e-04	
191	1.910000e+00	5.000000e-01	1.822226e-04	
192	1.920000e+00	5.000000e-01	1.837931e-04	
193	1.930000e+00	5.000000e-01	1.853585e-04	
194	1.940000e+00	5.000000e-01	1.869188e-04	
195	1.950000e+00	5.000000e-01	1.884740e-04	
196	1.960000e+00	5.000000e-01	1.900241e-04	
197	1.970000e+00	5.000000e-01	1.915690e-04	
198	1.980000e+00	5.000000e-01	1.931088e-04	
199	1.990000e+00	5.000000e-01	1.946433e-04	
200	2.000000e+00	5.000000e-01	1.961727e-04	
201	2.010000e+00	5.000000e-01	1.976969e-04	
202	2.020000e+00	5.000000e-01	1.992158e-04	
203	2.030000e+00	5.000000e-01	2.007295e-04	
204	2.040000e+00	5.000000e-01	2.022380e-04	
205	2.050000e+00	5.000000e-01	2.037412e-04	
206	2.060000e+00	5.000000e-01	2.052392e-04	
207	2.070000e+00	5.000000e-01	2.067319e-04	
208	2.080000e+00	5.000000e-01	2.082193e-04	
209	2.090000e+00	5.000000e-01	2.097015e-04	
210	2.100000e+00	5.000000e-01	2.111784e-04	
211	2.110000e+00	5.000000e-01	2.126501e-04	
212	2.120000e+00	5.000000e-01	2.141165e-04	
213	2.130000e+00	5.000000e-01	2.155776e-04	
214	2.140000e+00	5.000000e-01	2.170334e-04	
215	2.150000e+00	5.000000e-01	2.184840e-04	
216	2.160000e+00	5.000000e-01	2.199293e-04	
217	2.170000e+00	5.000000e-01	2.213694e-04	
218	2.180000e+00	5.000000e-01	2.228042e-04	
219	2.190000e+00	5.000000e-01	2.242337e-04	
220	2.200000e+00	5.000000e-01	2.256581e-04	
221	2.210000e+00	5.000000e-01	2.270771e-04	
222	2.220000e+00	5.000000e-01	2.284910e-04	
223	2.230000e+00	5.000000e-01	2.298996e-04	
224	2.240000e+00	5.000000e-01	2.313030e-04	
225	2.250000e+00	5.000000e-01	2.327012e-04	
226	2.260000e+00	5.000000e-01	2.340942e-04	
227	2.270000e+00	5.000000e-01	2.354820e-04	
228	2.280000e+00	5.000000e-01	2.368646e-04	

Index   v-sweep         v(g)            vs#branch       
--------------------------------------------------------------------------------
229	2.290000e+00	5.000000e-01	2.382421e-04	
230	2.300000e+00	5.000000e-01	2.396144e-04	
231	2.310000e+00	5.000000e-01	2.409816e-04	
232	2.320000e+00	5.000000e-01	2.423437e-04	
233	2.330000e+00	5.000000e-01	2.437006e-04	
234	2.340000e+00	5.000000e-01	2.450525e-04	
235	2.350000e+00	5.000000e-01	2.463992e-04	
236	2.360000e+00	5.000000e-01	2.477410e-04	
237	2.370000e+00	5.000000e-01	2.490776e-04	
238	2.380000e+00	5.000000e-01	2.504093e-04	
239	2.390000e+00	5.000000e-01	2.517359e-04	
240	2.400000e+00	5.000000e-01	2.530576e-04	
241	2.410000e+00	5.000000e-01	2.543742e-04	
242	2.420000e+00	5.000000e-01	2.556859e-04	
243	2.430000e+00	5.000000e-01	2.569927e-04	
244	2.440000e+00	5.000000e-01	2.582946e-04	
245	2.450000e+00	5.000000e-01	2.595916e-04	
246	2.460000e+00	5.000000e-01	2.608837e-04	
247	2.470000e+00	5.000000e-01	2.621710e-04	
248	2.480000e+00	5.000000e-01	2.634534e-04	
249	2.490000e+00	5.000000e-01	2.647311e-04	
250	2.500000e+00	5.000000e-01	2.660039e-04	
251	2.510000e+00	5.000000e-01	2.672721e-04	
252	2.520000e+00	5.000000e-01	2.685355e-04	
253	2.530000e+00	5.000000e-01	2.697942e-04	
254	2.540000e+00	5.000000e-01	2.710483e-04	
255	2.550000e+00	5.000000e-01	2.722977e-04	
256	2.560000e+00	5.000000e-01	2.735425e-04	
257	2.570000e+00	5.000000e-01	2.747827e-04	
258	2.580000e+00	5.000000e-01	2.760184e-04	
259	2.590000e+00	5.000000e-01	2.772496e-04	
260	2.600000e+00	5.000000e-01	2.784762e-04	
261	2.610000e+00	5.000000e-01	2.796984e-04	
262	2.620000e+00	5.000000e-01	2.809162e-04	
263	2.630000e+00	5.000000e-01	2.821296e-04	
264	2.640000e+00	5.000000e-01	2.833386e-04	
265	2.650000e+00	5.000000e-01	2.845434e-04	
266	2.660000e+00	5.000000e-01	2.857438e-04	
267	2.670000e+00	5.000000e-01	2.869400e-04	
268	2.680000e+00	5.000000e-01	2.881319e-04	
269	2.690000e+00	5.000000e-01	2.893197e-04	
270	2.700000e+00	5.000000e-01	2.905033e-04	
271	2.710000e+00	5.000000e-01	2.916829e-04	
272	2.720000e+00	5.000000e-01	2.928583e-04	
273	2.730000e+00	5.000000e-01	2.940298e-04	
274	2.740000e+00	5.000000e-01	2.951972e-04	
275	2.750000e+00	5.000000e-01	2.963607e-04	
276	2.760000e+00	5.000000e-01	2.975203e-04	
277	2.770000e+00	5.000000e-01	2.986761e-04	
278	2.780000e+00	5.000000e-01	2.998280e-04	
279	2.790000e+00	5.000000e-01	3.009762e-04	
280	2.800000e+00	5.000000e-01	3.021206e-04	
281	2.810000e+00	5.000000e-01	3.032614e-04	
282	2.820000e+00	5.000000e-01	3.043985e-04	
283	2.830000e+00	5.000000e-01	3.055320e-04	
284	2.840000e+00	5.000000e-01	3.066620e-04	
285	2.850000e+00	5.000000e-01	3.077885e-04	
286	2.860000e+00	5.000000e-01	3.089115e-04	

Index   v-sweep         v(g)            vs#branch       
--------------------------------------------------------------------------------
287	2.870000e+00	5.000000e-01	3.100311e-04	
288	2.880000e+00	5.000000e-01	3.111474e-04	
289	2.890000e+00	5.000000e-01	3.122604e-04	
290	2.900000e+00	5.000000e-01	3.133701e-04	
291	2.910000e+00	5.000000e-01	3.144766e-04	
292	2.920000e+00	5.000000e-01	3.155800e-04	
293	2.930000e+00	5.000000e-01	3.166803e-04	
294	2.940000e+00	5.000000e-01	3.177775e-04	
295	2.950000e+00	5.000000e-01	3.188718e-04	
296	2.960000e+00	5.000000e-01	3.199631e-04	
297	2.970000e+00	5.000000e-01	3.210516e-04	
298	2.980000e+00	5.000000e-01	3.221372e-04	
299	2.990000e+00	5.000000e-01	3.232200e-04	
300	3.000000e+00	5.000000e-01	3.243001e-04	
301	0.000000e+00	1.000000e+00	-5.161596e-35	
302	1.000000e-02	1.000000e+00	3.035382e-05	
303	2.000000e-02	1.000000e+00	6.014191e-05	
304	3.000000e-02	1.000000e+00	8.936619e-05	
305	4.000000e-02	1.000000e+00	1.180286e-04	
306	5.000000e-02	1.000000e+00	1.461310e-04	
307	6.000000e-02	1.000000e+00	1.736754e-04	
308	7.000000e-02	1.000000e+00	2.006636e-04	
309	8.000000e-02	1.000000e+00	2.270975e-04	
310	9.000000e-02	1.000000e+00	2.529791e-04	
311	1.000000e-01	1.000000e+00	2.783103e-04	
312	1.100000e-01	1.000000e+00	3.030928e-04	
313	1.200000e-01	1.000000e+00	3.273287e-04	
314	1.300000e-01	1.000000e+00	3.510198e-04	
315	1.400000e-01	1.000000e+00	3.741679e-04	
316	1.500000e-01	1.000000e+00	3.967749e-04	
317	1.600000e-01	1.000000e+00	4.188428e-04	
318	1.700000e-01	1.000000e+00	4.403734e-04	
319	1.800000e-01	1.000000e+00	4.613686e-04	
320	1.900000e-01	1.000000e+00	4.818302e-04	
321	2.000000e-01	1.000000e+00	5.017602e-04	
322	2.100000e-01	1.000000e+00	5.211604e-04	
323	2.200000e-01	1.000000e+00	5.400328e-04	
324	2.300000e-01	1.000000e+00	5.583792e-04	
325	2.400000e-01	1.000000e+00	5.762015e-04	
326	2.500000e-01	1.000000e+00	5.935017e-04	
327	2.600000e-01	1.000000e+00	6.102819e-04	
328	2.700000e-01	1.000000e+00	6.265438e-04	
329	2.800000e-01	1.000000e+00	6.422897e-04	
330	2.900000e-01	1.000000e+00	6.575214e-04	
331	3.000000e-01	1.000000e+00	6.722413e-04	
332	3.100000e-01	1.000000e+00	6.864514e-04	
333	3.200000e-01	1.000000e+00	7.001539e-04	
334	3.300000e-01	1.000000e+00	7.133514e-04	
335	3.400000e-01	1.000000e+00	7.260463e-04	
336	3.500000e-01	1.000000e+00	7.382412e-04	
337	3.600000e-01	1.000000e+00	7.499389e-04	
338	3.700000e-01	1.000000e+00	7.611427e-04	
339	3.800000e-01	1.000000e+00	7.718558e-04	
340	3.900000e-01	1.000000e+00	7.820821e-04	
341	4.000000e-01	1.000000e+00	7.918258e-04	
342	4.100000e-01	1.000000e+00	8.010919e-04	
343	4.200000e-01	1.000000e+00	8.098858e-04	
344	4.300000e-01	1.000000e+00	8.182141e-04	

Index   v-sweep         v(g)            vs#branch       
--------------------------------------------------------------------------------
345	4.400000e-01	1.000000e+00	8.260843e-04	
346	4.500000e-01	1.000000e+00	8.335052e-04	
347	4.600000e-01	1.000000e+00	8.404869e-04	
348	4.700000e-01	1.000000e+00	8.470415e-04	
349	4.800000e-01	1.000000e+00	8.531825e-04	
350	4.900000e-01	1.000000e+00	8.589254e-04	
351	5.000000e-01	1.000000e+00	8.642875e-04	
352	5.100000e-01	1.000000e+00	8.692879e-04	
353	5.200000e-01	1.000000e+00	8.739470e-04	
354	5.300000e-01	1.000000e+00	8.782866e-04	
355	5.400000e-01	1.000000e+00	8.823288e-04	
356	5.500000e-01	1.000000e+00	8.860965e-04	
357	5.600000e-01	1.000000e+00	8.896119e-04	
358	5.700000e-01	1.000000e+00	8.928969e-04	
359	5.800000e-01	1.000000e+00	8.959725e-04	
360	5.900000e-01	1.000000e+00	8.988582e-04	
361	6.000000e-01	1.000000e+00	9.015723e-04	
362	6.100000e-01	1.000000e+00	9.041317e-04	
363	6.200000e-01	1.000000e+00	9.065517e-04	
364	6.300000e-01	1.000000e+00	9.088463e-04	
365	6.400000e-01	1.000000e+00	9.110278e-04	
366	6.500000e-01	1.000000e+00	9.131076e-04	
367	6.600000e-01	1.000000e+00	9.150956e-04	
368	6.700000e-01	1.000000e+00	9.170008e-04	
369	6.800000e-01	1.000000e+00	9.188312e-04	
370	6.900000e-01	1.000000e+00	9.205938e-04	
371	7.000000e-01	1.000000e+00	9.222949e-04	
372	7.100000e-01	1.000000e+00	9.239402e-04	
373	7.200000e-01	1.000000e+00	9.255347e-04	
374	7.300000e-01	1.000000e+00	9.270828e-04	
375	7.400000e-01	1.000000e+00	9.285886e-04	
376	7.500000e-01	1.000000e+00	9.300556e-04	
377	7.600000e-01	1.000000e+00	9.314870e-04	
378	7.700000e-01	1.000000e+00	9.328858e-04	
379	7.800000e-01	1.000000e+00	9.342546e-04	
380	7.900000e-01	1.000000e+00	9.355955e-04	
381	8.000000e-01	1.000000e+00	9.369109e-04	
382	8.100000e-01	1.000000e+00	9.382026e-04	
383	8.200000e-01	1.000000e+00	9.394723e-04	
384	8.300000e-01	1.000000e+00	9.407215e-04	
385	8.400000e-01	1.000000e+00	9.419518e-04	
386	8.500000e-01	1.000000e+00	9.431645e-04	
387	8.600000e-01	1.000000e+00	9.443606e-04	
388	8.700000e-01	1.000000e+00	9.455414e-04	
389	8.800000e-01	1.000000e+00	9.467078e-04	
390	8.900000e-01	1.000000e+00	9.478607e-04	
391	9.000000e-01	1.000000e+00	9.490010e-04	
392	9.100000e-01	1.000000e+00	9.501305e-04	
393	9.200000e-01	1.000000e+00	9.512496e-04	
394	9.300000e-01	1.000000e+00	9.523590e-04	
395	9.400000e-01	1.000000e+00	9.534597e-04	
396	9.500000e-01	1.000000e+00	9.545524e-04	
397	9.600000e-01	1.000000e+00	9.556378e-04	
398	9.700000e-01	1.000000e+00	9.567166e-04	
399	9.800000e-01	1.000000e+00	9.577897e-04	
400	9.900000e-01	1.000000e+00	9.588578e-04	
401	1.000000e+00	1.000000e+00	9.599222e-04	
402	1.010000e+00	1.000000e+00	9.609844e-04	

Index   v-sweep         v(g)            vs#branch       
--------------------------------------------------------------------------------
403	1.020000e+00	1.000000e+00	9.620466e-04	
404	1.030000e+00	1.000000e+00	9.631129e-04	
405	1.040000e+00	1.000000e+00	9.641899e-04	
406	1.050000e+00	1.000000e+00	9.652918e-04	
407	1.060000e+00	1.000000e+00	9.664537e-04	
408	1.070000e+00	1.000000e+00	9.677858e-04	
409	1.080000e+00	1.000000e+00	9.697455e-04	
410	1.090000e+00	1.000000e+00	9.734428e-04	
411	1.100000e+00	1.000000e+00	9.783818e-04	
412	1.110000e+00	1.000000e+00	9.835361e-04	
413	1.120000e+00	1.000000e+00	9.886429e-04	
414	1.130000e+00	1.000000e+00	9.936418e-04	
415	1.140000e+00	1.000000e+00	9.985189e-04	
416	1.150000e+00	1.000000e+00	1.003274e-03	
417	1.160000e+00	1.000000e+00	1.007910e-03	
418	1.170000e+00	1.000000e+00	1.012432e-03	
419	1.180000e+00	1.000000e+00	1.016848e-03	
420	1.190000e+00	1.000000e+00	1.021161e-03	
421	1.200000e+00	1.000000e+00	1.025379e-03	
422	1.210000e+00	1.000000e+00	1.029506e-03	
423	1.220000e+00	1.000000e+00	1.033547e-03	
424	1.230000e+00	1.000000e+00	1.037508e-03	
425	1.240000e+00	1.000000e+00	1.041394e-03	
426	1.250000e+00	1.000000e+00	1.045262e-03	
427	1.260000e+00	1.000000e+00	1.049117e-03	
428	1.270000e+00	1.000000e+00	1.052944e-03	
429	1.280000e+00	1.000000e+00	1.056734e-03	
430	1.290000e+00	1.000000e+00	1.060479e-03	
431	1.300000e+00	1.000000e+00	1.064174e-03	
432	1.310000e+00	1.000000e+00	1.067819e-03	
433	1.320000e+00	1.000000e+00	1.071410e-03	
434	1.330000e+00	1.000000e+00	1.074947e-03	
435	1.340000e+00	1.000000e+00	1.078431e-03	
436	1.350000e+00	1.000000e+00	1.081862e-03	
437	1.360000e+00	1.000000e+00	1.085241e-03	
438	1.370000e+00	1.000000e+00	1.088568e-03	
439	1.380000e+00	1.000000e+00	1.091844e-03	
440	1.390000e+00	1.000000e+00	1.095072e-03	
441	1.400000e+00	1.000000e+00	1.098252e-03	
442	1.410000e+00	1.000000e+00	1.101385e-03	
443	1.420000e+00	1.000000e+00	1.104474e-03	
444	1.430000e+00	1.000000e+00	1.107519e-03	
445	1.440000e+00	1.000000e+00	1.110522e-03	
446	1.450000e+00	1.000000e+00	1.113484e-03	
447	1.460000e+00	1.000000e+00	1.116406e-03	
448	1.470000e+00	1.000000e+00	1.119290e-03	
449	1.480000e+00	1.000000e+00	1.122138e-03	
450	1.490000e+00	1.000000e+00	1.124949e-03	
451	1.500000e+00	1.000000e+00	1.127726e-03	
452	1.510000e+00	1.000000e+00	1.130470e-03	
453	1.520000e+00	1.000000e+00	1.133182e-03	
454	1.530000e+00	1.000000e+00	1.135862e-03	
455	1.540000e+00	1.000000e+00	1.138513e-03	
456	1.550000e+00	1.000000e+00	1.141134e-03	
457	1.560000e+00	1.000000e+00	1.143727e-03	
458	1.570000e+00	1.000000e+00	1.146294e-03	
459	1.580000e+00	1.000000e+00	1.148834e-03	
460	1.590000e+00	1.000000e+00	1.151349e-03	

Index   v-sweep         v(g)            vs#branch       
--------------------------------------------------------------------------------
461	1.600000e+00	1.000000e+00	1.153839e-03	
462	1.610000e+00	1.000000e+00	1.156306e-03	
463	1.620000e+00	1.000000e+00	1.158750e-03	
464	1.630000e+00	1.000000e+00	1.161172e-03	
465	1.640000e+00	1.000000e+00	1.163572e-03	
466	1.650000e+00	1.000000e+00	1.165952e-03	
467	1.660000e+00	1.000000e+00	1.168312e-03	
468	1.670000e+00	1.000000e+00	1.170653e-03	
469	1.680000e+00	1.000000e+00	1.172974e-03	
470	1.690000e+00	1.000000e+00	1.175278e-03	
471	1.700000e+00	1.000000e+00	1.177564e-03	
472	1.710000e+00	1.000000e+00	1.179832e-03	
473	1.720000e+00	1.000000e+00	1.182085e-03	
474	1.730000e+00	1.000000e+00	1.184321e-03	
475	1.740000e+00	1.000000e+00	1.186542e-03	
476	1.750000e+00	1.000000e+00	1.188747e-03	
477	1.760000e+00	1.000000e+00	1.190938e-03	
478	1.770000e+00	1.000000e+00	1.193115e-03	
479	1.780000e+00	1.000000e+00	1.195277e-03	
480	1.790000e+00	1.000000e+00	1.197427e-03	
481	1.800000e+00	1.000000e+00	1.199563e-03	
482	1.810000e+00	1.000000e+00	1.201686e-03	
483	1.820000e+00	1.000000e+00	1.203797e-03	
484	1.830000e+00	1.000000e+00	1.205896e-03	
485	1.840000e+00	1.000000e+00	1.207983e-03	
486	1.850000e+00	1.000000e+00	1.210058e-03	
487	1.860000e+00	1.000000e+00	1.212123e-03	
488	1.870000e+00	1.000000e+00	1.214176e-03	
489	1.880000e+00	1.000000e+00	1.216218e-03	
490	1.890000e+00	1.000000e+00	1.218250e-03	
491	1.900000e+00	1.000000e+00	1.220272e-03	
492	1.910000e+00	1.000000e+00	1.222284e-03	
493	1.920000e+00	1.000000e+00	1.224286e-03	
494	1.930000e+00	1.000000e+00	1.226278e-03	
495	1.940000e+00	1.000000e+00	1.228260e-03	
496	1.950000e+00	1.000000e+00	1.230234e-03	
497	1.960000e+00	1.000000e+00	1.232198e-03	
498	1.970000e+00	1.000000e+00	1.234153e-03	
499	1.980000e+00	1.000000e+00	1.236100e-03	
500	1.990000e+00	1.000000e+00	1.238037e-03	
501	2.000000e+00	1.000000e+00	1.239966e-03	
502	2.010000e+00	1.000000e+00	1.241887e-03	
503	2.020000e+00	1.000000e+00	1.243799e-03	
504	2.030000e+00	1.000000e+00	1.245704e-03	
505	2.040000e+00	1.000000e+00	1.247599e-03	
506	2.050000e+00	1.000000e+00	1.249487e-03	
507	2.060000e+00	1.000000e+00	1.251367e-03	
508	2.070000e+00	1.000000e+00	1.253239e-03	
509	2.080000e+00	1.000000e+00	1.255104e-03	
510	2.090000e+00	1.000000e+00	1.256960e-03	
511	2.100000e+00	1.000000e+00	1.258809e-03	
512	2.110000e+00	1.000000e+00	1.260651e-03	
513	2.120000e+00	1.000000e+00	1.262485e-03	
514	2.130000e+00	1.000000e+00	1.264311e-03	
515	2.140000e+00	1.000000e+00	1.266130e-03	
516	2.150000e+00	1.000000e+00	1.267941e-03	
517	2.160000e+00	1.000000e+00	1.269746e-03	
518	2.170000e+00	1.000000e+00	1.271543e-03	

Index   v-sweep         v(g)            vs#branch       
--------------------------------------------------------------------------------
519	2.180000e+00	1.000000e+00	1.273332e-03	
520	2.190000e+00	1.000000e+00	1.275115e-03	
521	2.200000e+00	1.000000e+00	1.276890e-03	
522	2.210000e+00	1.000000e+00	1.278658e-03	
523	2.220000e+00	1.000000e+00	1.280419e-03	
524	2.230000e+00	1.000000e+00	1.282173e-03	
525	2.240000e+00	1.000000e+00	1.283920e-03	
526	2.250000e+00	1.000000e+00	1.285659e-03	
527	2.260000e+00	1.000000e+00	1.287392e-03	
528	2.270000e+00	1.000000e+00	1.289117e-03	
529	2.280000e+00	1.000000e+00	1.290836e-03	
530	2.290000e+00	1.000000e+00	1.292547e-03	
531	2.300000e+00	1.000000e+00	1.294252e-03	
532	2.310000e+00	1.000000e+00	1.295950e-03	
533	2.320000e+00	1.000000e+00	1.297640e-03	
534	2.330000e+00	1.000000e+00	1.299324e-03	
535	2.340000e+00	1.000000e+00	1.301000e-03	
536	2.350000e+00	1.000000e+00	1.302670e-03	
537	2.360000e+00	1.000000e+00	1.304333e-03	
538	2.370000e+00	1.000000e+00	1.305989e-03	
539	2.380000e+00	1.000000e+00	1.307638e-03	
540	2.390000e+00	1.000000e+00	1.309280e-03	
541	2.400000e+00	1.000000e+00	1.310916e-03	
542	2.410000e+00	1.000000e+00	1.312544e-03	
543	2.420000e+00	1.000000e+00	1.314166e-03	
544	2.430000e+00	1.000000e+00	1.315781e-03	
545	2.440000e+00	1.000000e+00	1.317389e-03	
546	2.450000e+00	1.000000e+00	1.318990e-03	
547	2.460000e+00	1.000000e+00	1.320585e-03	
548	2.470000e+00	1.000000e+00	1.322173e-03	
549	2.480000e+00	1.000000e+00	1.323754e-03	
550	2.490000e+00	1.000000e+00	1.325328e-03	
551	2.500000e+00	1.000000e+00	1.326896e-03	
552	2.510000e+00	1.000000e+00	1.328457e-03	
553	2.520000e+00	1.000000e+00	1.330011e-03	
554	2.530000e+00	1.000000e+00	1.331559e-03	
555	2.540000e+00	1.000000e+00	1.333101e-03	
556	2.550000e+00	1.000000e+00	1.334635e-03	
557	2.560000e+00	1.000000e+00	1.336164e-03	
558	2.570000e+00	1.000000e+00	1.337685e-03	
559	2.580000e+00	1.000000e+00	1.339201e-03	
560	2.590000e+00	1.000000e+00	1.340710e-03	
561	2.600000e+00	1.000000e+00	1.342212e-03	
562	2.610000e+00	1.000000e+00	1.343709e-03	
563	2.620000e+00	1.000000e+00	1.345199e-03	
564	2.630000e+00	1.000000e+00	1.346683e-03	
565	2.640000e+00	1.000000e+00	1.348160e-03	
566	2.650000e+00	1.000000e+00	1.349632e-03	
567	2.660000e+00	1.000000e+00	1.351097e-03	
568	2.670000e+00	1.000000e+00	1.352557e-03	
569	2.680000e+00	1.000000e+00	1.354011e-03	
570	2.690000e+00	1.000000e+00	1.355458e-03	
571	2.700000e+00	1.000000e+00	1.356900e-03	
572	2.710000e+00	1.000000e+00	1.358336e-03	
573	2.720000e+00	1.000000e+00	1.359767e-03	
574	2.730000e+00	1.000000e+00	1.361192e-03	
575	2.740000e+00	1.000000e+00	1.362611e-03	
576	2.750000e+00	1.000000e+00	1.364025e-03	

Index   v-sweep         v(g)            vs#branch       
--------------------------------------------------------------------------------
577	2.760000e+00	1.000000e+00	1.365433e-03	
578	2.770000e+00	1.000000e+00	1.366836e-03	
579	2.780000e+00	1.000000e+00	1.368234e-03	
580	2.790000e+00	1.000000e+00	1.369626e-03	
581	2.800000e+00	1.000000e+00	1.371014e-03	
582	2.810000e+00	1.000000e+00	1.372397e-03	
583	2.820000e+00	1.000000e+00	1.373774e-03	
584	2.830000e+00	1.000000e+00	1.375147e-03	
585	2.840000e+00	1.000000e+00	1.376515e-03	
586	2.850000e+00	1.000000e+00	1.377879e-03	
587	2.860000e+00	1.000000e+00	1.379238e-03	
588	2.870000e+00	1.000000e+00	1.380592e-03	
589	2.880000e+00	1.000000e+00	1.381943e-03	
590	2.890000e+00	1.000000e+00	1.383289e-03	
591	2.900000e+00	1.000000e+00	1.384630e-03	
592	2.910000e+00	1.000000e+00	1.385968e-03	
593	2.920000e+00	1.000000e+00	1.387302e-03	
594	2.930000e+00	1.000000e+00	1.388633e-03	
595	2.940000e+00	1.000000e+00	1.389959e-03	
596	2.950000e+00	1.000000e+00	1.391282e-03	
597	2.960000e+00	1.000000e+00	1.392602e-03	
598	2.970000e+00	1.000000e+00	1.393918e-03	
599	2.980000e+00	1.000000e+00	1.395232e-03	
600	2.990000e+00	1.000000e+00	1.396542e-03	
601	3.000000e+00	1.000000e+00	1.397849e-03	
602	0.000000e+00	1.500000e+00	-5.161596e-35	
603	1.000000e-02	1.500000e+00	4.579468e-05	
604	2.000000e-02	1.500000e+00	9.111651e-05	
605	3.000000e-02	1.500000e+00	1.359666e-04	
606	4.000000e-02	1.500000e+00	1.803462e-04	
607	5.000000e-02	1.500000e+00	2.242563e-04	
608	6.000000e-02	1.500000e+00	2.676981e-04	
609	7.000000e-02	1.500000e+00	3.106727e-04	
610	8.000000e-02	1.500000e+00	3.531813e-04	
611	9.000000e-02	1.500000e+00	3.952248e-04	
612	1.000000e-01	1.500000e+00	4.368045e-04	
613	1.100000e-01	1.500000e+00	4.779215e-04	
614	1.200000e-01	1.500000e+00	5.185768e-04	
615	1.300000e-01	1.500000e+00	5.587716e-04	
616	1.400000e-01	1.500000e+00	5.985069e-04	
617	1.500000e-01	1.500000e+00	6.377839e-04	
618	1.600000e-01	1.500000e+00	6.766036e-04	
619	1.700000e-01	1.500000e+00	7.149671e-04	
620	1.800000e-01	1.500000e+00	7.528755e-04	
621	1.900000e-01	1.500000e+00	7.903298e-04	
622	2.000000e-01	1.500000e+00	8.273312e-04	
623	2.100000e-01	1.500000e+00	8.638806e-04	
624	2.200000e-01	1.500000e+00	8.999792e-04	
625	2.300000e-01	1.500000e+00	9.356280e-04	
626	2.400000e-01	1.500000e+00	9.708281e-04	
627	2.500000e-01	1.500000e+00	1.005580e-03	
628	2.600000e-01	1.500000e+00	1.039886e-03	
629	2.700000e-01	1.500000e+00	1.073746e-03	
630	2.800000e-01	1.500000e+00	1.107162e-03	
631	2.900000e-01	1.500000e+00	1.140133e-03	
632	3.000000e-01	1.500000e+00	1.172663e-03	
633	3.100000e-01	1.500000e+00	1.204750e-03	
634	3.200000e-01	1.500000e+00	1.236397e-03	

Index   v-sweep         v(g)            vs#branch       
--------------------------------------------------------------------------------
635	3.300000e-01	1.500000e+00	1.267605e-03	
636	3.400000e-01	1.500000e+00	1.298374e-03	
637	3.500000e-01	1.500000e+00	1.328705e-03	
638	3.600000e-01	1.500000e+00	1.358599e-03	
639	3.700000e-01	1.500000e+00	1.388058e-03	
640	3.800000e-01	1.500000e+00	1.417082e-03	
641	3.900000e-01	1.500000e+00	1.445672e-03	
642	4.000000e-01	1.500000e+00	1.473830e-03	
643	4.100000e-01	1.500000e+00	1.501555e-03	
644	4.200000e-01	1.500000e+00	1.528849e-03	
645	4.300000e-01	1.500000e+00	1.555713e-03	
646	4.400000e-01	1.500000e+00	1.582148e-03	
647	4.500000e-01	1.500000e+00	1.608154e-03	
648	4.600000e-01	1.500000e+00	1.633732e-03	
649	4.700000e-01	1.500000e+00	1.658884e-03	
650	4.800000e-01	1.500000e+00	1.683609e-03	
651	4.900000e-01	1.500000e+00	1.707910e-03	
652	5.000000e-01	1.500000e+00	1.731785e-03	
653	5.100000e-01	1.500000e+00	1.755237e-03	
654	5.200000e-01	1.500000e+00	1.778266e-03	
655	5.300000e-01	1.500000e+00	1.800872e-03	
656	5.400000e-01	1.500000e+00	1.823056e-03	
657	5.500000e-01	1.500000e+00	1.844819e-03	
658	5.600000e-01	1.500000e+00	1.866161e-03	
659	5.700000e-01	1.500000e+00	1.887083e-03	
660	5.800000e-01	1.500000e+00	1.907584e-03	
661	5.900000e-01	1.500000e+00	1.927666e-03	
662	6.000000e-01	1.500000e+00	1.947329e-03	
663	6.100000e-01	1.500000e+00	1.966572e-03	
664	6.200000e-01	1.500000e+00	1.985397e-03	
665	6.300000e-01	1.500000e+00	2.003802e-03	
666	6.400000e-01	1.500000e+00	2.021788e-03	
667	6.500000e-01	1.500000e+00	2.039355e-03	
668	6.600000e-01	1.500000e+00	2.056503e-03	
669	6.700000e-01	1.500000e+00	2.073230e-03	
670	6.800000e-01	1.500000e+00	2.089537e-03	
671	6.900000e-01	1.500000e+00	2.105423e-03	
672	7.000000e-01	1.500000e+00	2.120886e-03	
673	7.100000e-01	1.500000e+00	2.135927e-03	
674	7.200000e-01	1.500000e+00	2.150543e-03	
675	7.300000e-01	1.500000e+00	2.164734e-03	
676	7.400000e-01	1.500000e+00	2.178498e-03	
677	7.500000e-01	1.500000e+00	2.191834e-03	
678	7.600000e-01	1.500000e+00	2.204740e-03	
679	7.700000e-01	1.500000e+00	2.217215e-03	
680	7.800000e-01	1.500000e+00	2.229259e-03	
681	7.900000e-01	1.500000e+00	2.240869e-03	
682	8.000000e-01	1.500000e+00	2.252045e-03	
683	8.100000e-01	1.500000e+00	2.262787e-03	
684	8.200000e-01	1.500000e+00	2.273096e-03	
685	8.300000e-01	1.500000e+00	2.282973e-03	
686	8.400000e-01	1.500000e+00	2.292421e-03	
687	8.500000e-01	1.500000e+00	2.301443e-03	
688	8.600000e-01	1.500000e+00	2.310044e-03	
689	8.700000e-01	1.500000e+00	2.318232e-03	
690	8.800000e-01	1.500000e+00	2.326015e-03	
691	8.900000e-01	1.500000e+00	2.333403e-03	
692	9.000000e-01	1.500000e+00	2.340407e-03	

Index   v-sweep         v(g)            vs#branch       
--------------------------------------------------------------------------------
693	9.100000e-01	1.500000e+00	2.347041e-03	
694	9.200000e-01	1.500000e+00	2.353320e-03	
695	9.300000e-01	1.500000e+00	2.359259e-03	
696	9.400000e-01	1.500000e+00	2.364875e-03	
697	9.500000e-01	1.500000e+00	2.370185e-03	
698	9.600000e-01	1.500000e+00	2.375207e-03	
699	9.700000e-01	1.500000e+00	2.379958e-03	
700	9.800000e-01	1.500000e+00	2.384455e-03	
701	9.900000e-01	1.500000e+00	2.388716e-03	
702	1.000000e+00	1.500000e+00	2.392756e-03	
703	1.010000e+00	1.500000e+00	2.396592e-03	
704	1.020000e+00	1.500000e+00	2.400238e-03	
705	1.030000e+00	1.500000e+00	2.403708e-03	
706	1.040000e+00	1.500000e+00	2.407016e-03	
707	1.050000e+00	1.500000e+00	2.410173e-03	
708	1.060000e+00	1.500000e+00	2.413191e-03	
709	1.070000e+00	1.500000e+00	2.416080e-03	
710	1.080000e+00	1.500000e+00	2.418851e-03	
711	1.090000e+00	1.500000e+00	2.421511e-03	
712	1.100000e+00	1.500000e+00	2.424070e-03	
713	1.110000e+00	1.500000e+00	2.426537e-03	
714	1.120000e+00	1.500000e+00	2.428918e-03	
715	1.130000e+00	1.500000e+00	2.431220e-03	
716	1.140000e+00	1.500000e+00	2.433449e-03	
717	1.150000e+00	1.500000e+00	2.435610e-03	
718	1.160000e+00	1.500000e+00	2.437708e-03	
719	1.170000e+00	1.500000e+00	2.439749e-03	
720	1.180000e+00	1.500000e+00	2.441738e-03	
721	1.190000e+00	1.500000e+00	2.443678e-03	
722	1.200000e+00	1.500000e+00	2.445575e-03	
723	1.210000e+00	1.500000e+00	2.447435e-03	
724	1.220000e+00	1.500000e+00	2.449265e-03	
725	1.230000e+00	1.500000e+00	2.451077e-03	
726	1.240000e+00	1.500000e+00	2.452889e-03	
727	1.250000e+00	1.500000e+00	2.454747e-03	
728	1.260000e+00	1.500000e+00	2.456784e-03	
729	1.270000e+00	1.500000e+00	2.459531e-03	
730	1.280000e+00	1.500000e+00	2.464487e-03	
731	1.290000e+00	1.500000e+00	2.471352e-03	
732	1.300000e+00	1.500000e+00	2.478654e-03	
733	1.310000e+00	1.500000e+00	2.485967e-03	
734	1.320000e+00	1.500000e+00	2.493192e-03	
735	1.330000e+00	1.500000e+00	2.500301e-03	
736	1.340000e+00	1.500000e+00	2.507287e-03	
737	1.350000e+00	1.500000e+00	2.514149e-03	
738	1.360000e+00	1.500000e+00	2.520891e-03	
739	1.370000e+00	1.500000e+00	2.527516e-03	
740	1.380000e+00	1.500000e+00	2.534028e-03	
741	1.390000e+00	1.500000e+00	2.540432e-03	
742	1.400000e+00	1.500000e+00	2.546732e-03	
743	1.410000e+00	1.500000e+00	2.552931e-03	
744	1.420000e+00	1.500000e+00	2.559034e-03	
745	1.430000e+00	1.500000e+00	2.565051e-03	
746	1.440000e+00	1.500000e+00	2.571058e-03	
747	1.450000e+00	1.500000e+00	2.577049e-03	
748	1.460000e+00	1.500000e+00	2.583003e-03	
749	1.470000e+00	1.500000e+00	2.588905e-03	
750	1.480000e+00	1.500000e+00	2.594746e-03	

Index   v-sweep         v(g)            vs#branch       
--------------------------------------------------------------------------------
751	1.490000e+00	1.500000e+00	2.600517e-03	
752	1.500000e+00	1.500000e+00	2.606215e-03	
753	1.510000e+00	1.500000e+00	2.611836e-03	
754	1.520000e+00	1.500000e+00	2.617379e-03	
755	1.530000e+00	1.500000e+00	2.622842e-03	
756	1.540000e+00	1.500000e+00	2.628227e-03	
757	1.550000e+00	1.500000e+00	2.633532e-03	
758	1.560000e+00	1.500000e+00	2.638759e-03	
759	1.570000e+00	1.500000e+00	2.643907e-03	
760	1.580000e+00	1.500000e+00	2.648980e-03	
761	1.590000e+00	1.500000e+00	2.653976e-03	
762	1.600000e+00	1.500000e+00	2.658899e-03	
763	1.610000e+00	1.500000e+00	2.663749e-03	
764	1.620000e+00	1.500000e+00	2.668527e-03	
765	1.630000e+00	1.500000e+00	2.673235e-03	
766	1.640000e+00	1.500000e+00	2.677875e-03	
767	1.650000e+00	1.500000e+00	2.682448e-03	
768	1.660000e+00	1.500000e+00	2.686955e-03	
769	1.670000e+00	1.500000e+00	2.691399e-03	
770	1.680000e+00	1.500000e+00	2.695779e-03	
771	1.690000e+00	1.500000e+00	2.700098e-03	
772	1.700000e+00	1.500000e+00	2.704357e-03	
773	1.710000e+00	1.500000e+00	2.708558e-03	
774	1.720000e+00	1.500000e+00	2.712701e-03	
775	1.730000e+00	1.500000e+00	2.716788e-03	
776	1.740000e+00	1.500000e+00	2.720821e-03	
777	1.750000e+00	1.500000e+00	2.724800e-03	
778	1.760000e+00	1.500000e+00	2.728727e-03	
779	1.770000e+00	1.500000e+00	2.732603e-03	
780	1.780000e+00	1.500000e+00	2.736428e-03	
781	1.790000e+00	1.500000e+00	2.740205e-03	
782	1.800000e+00	1.500000e+00	2.743934e-03	
783	1.810000e+00	1.500000e+00	2.747616e-03	
784	1.820000e+00	1.500000e+00	2.751253e-03	
785	1.830000e+00	1.500000e+00	2.754845e-03	
786	1.840000e+00	1.500000e+00	2.758393e-03	
787	1.850000e+00	1.500000e+00	2.761898e-03	
788	1.860000e+00	1.500000e+00	2.765361e-03	
789	1.870000e+00	1.500000e+00	2.768783e-03	
790	1.880000e+00	1.500000e+00	2.772165e-03	
791	1.890000e+00	1.500000e+00	2.775508e-03	
792	1.900000e+00	1.500000e+00	2.778812e-03	
793	1.910000e+00	1.500000e+00	2.782078e-03	
794	1.920000e+00	1.500000e+00	2.785307e-03	
795	1.930000e+00	1.500000e+00	2.788500e-03	
796	1.940000e+00	1.500000e+00	2.791658e-03	
797	1.950000e+00	1.500000e+00	2.794780e-03	
798	1.960000e+00	1.500000e+00	2.797868e-03	
799	1.970000e+00	1.500000e+00	2.800923e-03	
800	1.980000e+00	1.500000e+00	2.803945e-03	
801	1.990000e+00	1.500000e+00	2.806935e-03	
802	2.000000e+00	1.500000e+00	2.809893e-03	
803	2.010000e+00	1.500000e+00	2.812819e-03	
804	2.020000e+00	1.500000e+00	2.815716e-03	
805	2.030000e+00	1.500000e+00	2.818582e-03	
806	2.040000e+00	1.500000e+00	2.821419e-03	
807	2.050000e+00	1.500000e+00	2.824226e-03	
808	2.060000e+00	1.500000e+00	2.827006e-03	

Index   v-sweep         v(g)            vs#branch       
--------------------------------------------------------------------------------
809	2.070000e+00	1.500000e+00	2.829757e-03	
810	2.080000e+00	1.500000e+00	2.832481e-03	
811	2.090000e+00	1.500000e+00	2.835178e-03	
812	2.100000e+00	1.500000e+00	2.837849e-03	
813	2.110000e+00	1.500000e+00	2.840493e-03	
814	2.120000e+00	1.500000e+00	2.843112e-03	
815	2.130000e+00	1.500000e+00	2.845705e-03	
816	2.140000e+00	1.500000e+00	2.848273e-03	
817	2.150000e+00	1.500000e+00	2.850817e-03	
818	2.160000e+00	1.500000e+00	2.853336e-03	
819	2.170000e+00	1.500000e+00	2.855832e-03	
820	2.180000e+00	1.500000e+00	2.858305e-03	
821	2.190000e+00	1.500000e+00	2.860754e-03	
822	2.200000e+00	1.500000e+00	2.863180e-03	
823	2.210000e+00	1.500000e+00	2.865584e-03	
824	2.220000e+00	1.500000e+00	2.867966e-03	
825	2.230000e+00	1.500000e+00	2.870326e-03	
826	2.240000e+00	1.500000e+00	2.872665e-03	
827	2.250000e+00	1.500000e+00	2.874982e-03	
828	2.260000e+00	1.500000e+00	2.877278e-03	
829	2.270000e+00	1.500000e+00	2.879553e-03	
830	2.280000e+00	1.500000e+00	2.881808e-03	
831	2.290000e+00	1.500000e+00	2.884043e-03	
832	2.300000e+00	1.500000e+00	2.886258e-03	
833	2.310000e+00	1.500000e+00	2.888453e-03	
834	2.320000e+00	1.500000e+00	2.890629e-03	
835	2.330000e+00	1.500000e+00	2.892785e-03	
836	2.340000e+00	1.500000e+00	2.894923e-03	
837	2.350000e+00	1.500000e+00	2.897041e-03	
838	2.360000e+00	1.500000e+00	2.899141e-03	
839	2.370000e+00	1.500000e+00	2.901223e-03	
840	2.380000e+00	1.500000e+00	2.903286e-03	
841	2.390000e+00	1.500000e+00	2.905331e-03	
842	2.400000e+00	1.500000e+00	2.907359e-03	
843	2.410000e+00	1.500000e+00	2.909369e-03	
844	2.420000e+00	1.500000e+00	2.911361e-03	
845	2.430000e+00	1.500000e+00	2.913337e-03	
846	2.440000e+00	1.500000e+00	2.915295e-03	
847	2.450000e+00	1.500000e+00	2.917236e-03	
848	2.460000e+00	1.500000e+00	2.919161e-03	
849	2.470000e+00	1.500000e+00	2.921069e-03	
850	2.480000e+00	1.500000e+00	2.922960e-03	
851	2.490000e+00	1.500000e+00	2.924836e-03	
852	2.500000e+00	1.500000e+00	2.926695e-03	
853	2.510000e+00	1.500000e+00	2.928538e-03	
854	2.520000e+00	1.500000e+00	2.930366e-03	
855	2.530000e+00	1.500000e+00	2.932178e-03	
856	2.540000e+00	1.500000e+00	2.933975e-03	
857	2.550000e+00	1.500000e+00	2.935756e-03	
858	2.560000e+00	1.500000e+00	2.937522e-03	
859	2.570000e+00	1.500000e+00	2.939273e-03	
860	2.580000e+00	1.500000e+00	2.941009e-03	
861	2.590000e+00	1.500000e+00	2.942731e-03	
862	2.600000e+00	1.500000e+00	2.944437e-03	
863	2.610000e+00	1.500000e+00	2.946130e-03	
864	2.620000e+00	1.500000e+00	2.947808e-03	
865	2.630000e+00	1.500000e+00	2.949472e-03	
866	2.640000e+00	1.500000e+00	2.951123e-03	

Index   v-sweep         v(g)            vs#branch       
--------------------------------------------------------------------------------
867	2.650000e+00	1.500000e+00	2.952759e-03	
868	2.660000e+00	1.500000e+00	2.954381e-03	
869	2.670000e+00	1.500000e+00	2.955991e-03	
870	2.680000e+00	1.500000e+00	2.957586e-03	
871	2.690000e+00	1.500000e+00	2.959169e-03	
872	2.700000e+00	1.500000e+00	2.960738e-03	
873	2.710000e+00	1.500000e+00	2.962295e-03	
874	2.720000e+00	1.500000e+00	2.963839e-03	
875	2.730000e+00	1.500000e+00	2.965370e-03	
876	2.740000e+00	1.500000e+00	2.966889e-03	
877	2.750000e+00	1.500000e+00	2.968395e-03	
878	2.760000e+00	1.500000e+00	2.969890e-03	
879	2.770000e+00	1.500000e+00	2.971372e-03	
880	2.780000e+00	1.500000e+00	2.972843e-03	
881	2.790000e+00	1.500000e+00	2.974302e-03	
882	2.800000e+00	1.500000e+00	2.975750e-03	
883	2.810000e+00	1.500000e+00	2.977186e-03	
884	2.820000e+00	1.500000e+00	2.978612e-03	
885	2.830000e+00	1.500000e+00	2.980026e-03	
886	2.840000e+00	1.500000e+00	2.981430e-03	
887	2.850000e+00	1.500000e+00	2.982823e-03	
888	2.860000e+00	1.500000e+00	2.984206e-03	
889	2.870000e+00	1.500000e+00	2.985579e-03	
890	2.880000e+00	1.500000e+00	2.986942e-03	
891	2.890000e+00	1.500000e+00	2.988295e-03	
892	2.900000e+00	1.500000e+00	2.989638e-03	
893	2.910000e+00	1.500000e+00	2.990972e-03	
894	2.920000e+00	1.500000e+00	2.992297e-03	
895	2.930000e+00	1.500000e+00	2.993614e-03	
896	2.940000e+00	1.500000e+00	2.994921e-03	
897	2.950000e+00	1.500000e+00	2.996220e-03	
898	2.960000e+00	1.500000e+00	2.997510e-03	
899	2.970000e+00	1.500000e+00	2.998793e-03	
900	2.980000e+00	1.500000e+00	3.000068e-03	
901	2.990000e+00	1.500000e+00	3.001335e-03	
902	3.000000e+00	1.500000e+00	3.002594e-03	
903	0.000000e+00	2.000000e+00	-5.161596e-35	
904	1.000000e-02	2.000000e+00	5.447069e-05	
905	2.000000e-02	2.000000e+00	1.085482e-04	
906	3.000000e-02	2.000000e+00	1.622332e-04	
907	4.000000e-02	2.000000e+00	2.155265e-04	
908	5.000000e-02	2.000000e+00	2.684288e-04	
909	6.000000e-02	2.000000e+00	3.209408e-04	
910	7.000000e-02	2.000000e+00	3.730632e-04	
911	8.000000e-02	2.000000e+00	4.247969e-04	
912	9.000000e-02	2.000000e+00	4.761425e-04	
913	1.000000e-01	2.000000e+00	5.271007e-04	
914	1.100000e-01	2.000000e+00	5.776722e-04	
915	1.200000e-01	2.000000e+00	6.278579e-04	
916	1.300000e-01	2.000000e+00	6.776583e-04	
917	1.400000e-01	2.000000e+00	7.270742e-04	
918	1.500000e-01	2.000000e+00	7.761064e-04	
919	1.600000e-01	2.000000e+00	8.247555e-04	
920	1.700000e-01	2.000000e+00	8.730222e-04	
921	1.800000e-01	2.000000e+00	9.209073e-04	
922	1.900000e-01	2.000000e+00	9.684115e-04	
923	2.000000e-01	2.000000e+00	1.015535e-03	
924	2.100000e-01	2.000000e+00	1.062280e-03	

Index   v-sweep         v(g)            vs#branch       
--------------------------------------------------------------------------------
925	2.200000e-01	2.000000e+00	1.108645e-03	
926	2.300000e-01	2.000000e+00	1.154633e-03	
927	2.400000e-01	2.000000e+00	1.200243e-03	
928	2.500000e-01	2.000000e+00	1.245476e-03	
929	2.600000e-01	2.000000e+00	1.290333e-03	
930	2.700000e-01	2.000000e+00	1.334815e-03	
931	2.800000e-01	2.000000e+00	1.378922e-03	
932	2.900000e-01	2.000000e+00	1.422655e-03	
933	3.000000e-01	2.000000e+00	1.466014e-03	
934	3.100000e-01	2.000000e+00	1.509002e-03	
935	3.200000e-01	2.000000e+00	1.551617e-03	
936	3.300000e-01	2.000000e+00	1.593860e-03	
937	3.400000e-01	2.000000e+00	1.635733e-03	
938	3.500000e-01	2.000000e+00	1.677236e-03	
939	3.600000e-01	2.000000e+00	1.718370e-03	
940	3.700000e-01	2.000000e+00	1.759135e-03	
941	3.800000e-01	2.000000e+00	1.799532e-03	
942	3.900000e-01	2.000000e+00	1.839562e-03	
943	4.000000e-01	2.000000e+00	1.879225e-03	
944	4.100000e-01	2.000000e+00	1.918522e-03	
945	4.200000e-01	2.000000e+00	1.957454e-03	
946	4.300000e-01	2.000000e+00	1.996021e-03	
947	4.400000e-01	2.000000e+00	2.034223e-03	
948	4.500000e-01	2.000000e+00	2.072062e-03	
949	4.600000e-01	2.000000e+00	2.109539e-03	
950	4.700000e-01	2.000000e+00	2.146653e-03	
951	4.800000e-01	2.000000e+00	2.183405e-03	
952	4.900000e-01	2.000000e+00	2.219796e-03	
953	5.000000e-01	2.000000e+00	2.255827e-03	
954	5.100000e-01	2.000000e+00	2.291498e-03	
955	5.200000e-01	2.000000e+00	2.326810e-03	
956	5.300000e-01	2.000000e+00	2.361763e-03	
957	5.400000e-01	2.000000e+00	2.396358e-03	
958	5.500000e-01	2.000000e+00	2.430596e-03	
959	5.600000e-01	2.000000e+00	2.464477e-03	
960	5.700000e-01	2.000000e+00	2.498001e-03	
961	5.800000e-01	2.000000e+00	2.531170e-03	
962	5.900000e-01	2.000000e+00	2.563984e-03	
963	6.000000e-01	2.000000e+00	2.596442e-03	
964	6.100000e-01	2.000000e+00	2.628547e-03	
965	6.200000e-01	2.000000e+00	2.660298e-03	
966	6.300000e-01	2.000000e+00	2.691696e-03	
967	6.400000e-01	2.000000e+00	2.722741e-03	
968	6.500000e-01	2.000000e+00	2.753435e-03	
969	6.600000e-01	2.000000e+00	2.783776e-03	
970	6.700000e-01	2.000000e+00	2.813767e-03	
971	6.800000e-01	2.000000e+00	2.843406e-03	
972	6.900000e-01	2.000000e+00	2.872696e-03	
973	7.000000e-01	2.000000e+00	2.901635e-03	
974	7.100000e-01	2.000000e+00	2.930225e-03	
975	7.200000e-01	2.000000e+00	2.958466e-03	
976	7.300000e-01	2.000000e+00	2.986358e-03	
977	7.400000e-01	2.000000e+00	3.013902e-03	
978	7.500000e-01	2.000000e+00	3.041097e-03	
979	7.600000e-01	2.000000e+00	3.067945e-03	
980	7.700000e-01	2.000000e+00	3.094445e-03	
981	7.800000e-01	2.000000e+00	3.120598e-03	
982	7.900000e-01	2.000000e+00	3.146404e-03	

Index   v-sweep         v(g)            vs#branch       
--------------------------------------------------------------------------------
983	8.000000e-01	2.000000e+00	3.171862e-03	
984	8.100000e-01	2.000000e+00	3.196974e-03	
985	8.200000e-01	2.000000e+00	3.221739e-03	
986	8.300000e-01	2.000000e+00	3.246156e-03	
987	8.400000e-01	2.000000e+00	3.270227e-03	
988	8.500000e-01	2.000000e+00	3.293951e-03	
989	8.600000e-01	2.000000e+00	3.317328e-03	
990	8.700000e-01	2.000000e+00	3.340357e-03	
991	8.800000e-01	2.000000e+00	3.363039e-03	
992	8.900000e-01	2.000000e+00	3.385372e-03	
993	9.000000e-01	2.000000e+00	3.407357e-03	
994	9.100000e-01	2.000000e+00	3.428993e-03	
995	9.200000e-01	2.000000e+00	3.450278e-03	
996	9.300000e-01	2.000000e+00	3.471213e-03	
997	9.400000e-01	2.000000e+00	3.491796e-03	
998	9.500000e-01	2.000000e+00	3.512027e-03	
999	9.600000e-01	2.000000e+00	3.531903e-03	
1000	9.700000e-01	2.000000e+00	3.551424e-03	
1001	9.800000e-01	2.000000e+00	3.570588e-03	
1002	9.900000e-01	2.000000e+00	3.589394e-03	
1003	1.000000e+00	2.000000e+00	3.607838e-03	
1004	1.010000e+00	2.000000e+00	3.625921e-03	
1005	1.020000e+00	2.000000e+00	3.643637e-03	
1006	1.030000e+00	2.000000e+00	3.660987e-03	
1007	1.040000e+00	2.000000e+00	3.677966e-03	
1008	1.050000e+00	2.000000e+00	3.694571e-03	
1009	1.060000e+00	2.000000e+00	3.710799e-03	
1010	1.070000e+00	2.000000e+00	3.726648e-03	
1011	1.080000e+00	2.000000e+00	3.742112e-03	
1012	1.090000e+00	2.000000e+00	3.757189e-03	
1013	1.100000e+00	2.000000e+00	3.771875e-03	
1014	1.110000e+00	2.000000e+00	3.786165e-03	
1015	1.120000e+00	2.000000e+00	3.800056e-03	
1016	1.130000e+00	2.000000e+00	3.813544e-03	
1017	1.140000e+00	2.000000e+00	3.826625e-03	
1018	1.150000e+00	2.000000e+00	3.839296e-03	
1019	1.160000e+00	2.000000e+00	3.851554e-03	
1020	1.170000e+00	2.000000e+00	3.863397e-03	
1021	1.180000e+00	2.000000e+00	3.874824e-03	
1022	1.190000e+00	2.000000e+00	3.885834e-03	
1023	1.200000e+00	2.000000e+00	3.896427e-03	
1024	1.210000e+00	2.000000e+00	3.906606e-03	
1025	1.220000e+00	2.000000e+00	3.916373e-03	
1026	1.230000e+00	2.000000e+00	3.925734e-03	
1027	1.240000e+00	2.000000e+00	3.934693e-03	
1028	1.250000e+00	2.000000e+00	3.943259e-03	
1029	1.260000e+00	2.000000e+00	3.951441e-03	
1030	1.270000e+00	2.000000e+00	3.959249e-03	
1031	1.280000e+00	2.000000e+00	3.966693e-03	
1032	1.290000e+00	2.000000e+00	3.973788e-03	
1033	1.300000e+00	2.000000e+00	3.980545e-03	
1034	1.310000e+00	2.000000e+00	3.986981e-03	
1035	1.320000e+00	2.000000e+00	3.993113e-03	
1036	1.330000e+00	2.000000e+00	3.998952e-03	
1037	1.340000e+00	2.000000e+00	4.004515e-03	
1038	1.350000e+00	2.000000e+00	4.009816e-03	
1039	1.360000e+00	2.000000e+00	4.014871e-03	
1040	1.370000e+00	2.000000e+00	4.019695e-03	

Index   v-sweep         v(g)            vs#branch       
--------------------------------------------------------------------------------
1041	1.380000e+00	2.000000e+00	4.024302e-03	
1042	1.390000e+00	2.000000e+00	4.028706e-03	
1043	1.400000e+00	2.000000e+00	4.032923e-03	
1044	1.410000e+00	2.000000e+00	4.036968e-03	
1045	1.420000e+00	2.000000e+00	4.040857e-03	
1046	1.430000e+00	2.000000e+00	4.044613e-03	
1047	1.440000e+00	2.000000e+00	4.048267e-03	
1048	1.450000e+00	2.000000e+00	4.051884e-03	
1049	1.460000e+00	2.000000e+00	4.055647e-03	
1050	1.470000e+00	2.000000e+00	4.060277e-03	
1051	1.480000e+00	2.000000e+00	4.067422e-03	
1052	1.490000e+00	2.000000e+00	4.076364e-03	
1053	1.500000e+00	2.000000e+00	4.085669e-03	
1054	1.510000e+00	2.000000e+00	4.094952e-03	
1055	1.520000e+00	2.000000e+00	4.104118e-03	
1056	1.530000e+00	2.000000e+00	4.113142e-03	
1057	1.540000e+00	2.000000e+00	4.122017e-03	
1058	1.550000e+00	2.000000e+00	4.130743e-03	
1059	1.560000e+00	2.000000e+00	4.139324e-03	
1060	1.570000e+00	2.000000e+00	4.147764e-03	
1061	1.580000e+00	2.000000e+00	4.156070e-03	
1062	1.590000e+00	2.000000e+00	4.164244e-03	
1063	1.600000e+00	2.000000e+00	4.172293e-03	
1064	1.610000e+00	2.000000e+00	4.180221e-03	
1065	1.620000e+00	2.000000e+00	4.188032e-03	
1066	1.630000e+00	2.000000e+00	4.195749e-03	
1067	1.640000e+00	2.000000e+00	4.203454e-03	
1068	1.650000e+00	2.000000e+00	4.211131e-03	
1069	1.660000e+00	2.000000e+00	4.218755e-03	
1070	1.670000e+00	2.000000e+00	4.226310e-03	
1071	1.680000e+00	2.000000e+00	4.233785e-03	
1072	1.690000e+00	2.000000e+00	4.241173e-03	
1073	1.700000e+00	2.000000e+00	4.248469e-03	
1074	1.710000e+00	2.000000e+00	4.255669e-03	
1075	1.720000e+00	2.000000e+00	4.262772e-03	
1076	1.730000e+00	2.000000e+00	4.269776e-03	
1077	1.740000e+00	2.000000e+00	4.276683e-03	
1078	1.750000e+00	2.000000e+00	4.283491e-03	
1079	1.760000e+00	2.000000e+00	4.290202e-03	
1080	1.770000e+00	2.000000e+00	4.296816e-03	
1081	1.780000e+00	2.000000e+00	4.303336e-03	
1082	1.790000e+00	2.000000e+00	4.309761e-03	
1083	1.800000e+00	2.000000e+00	4.316095e-03	
1084	1.810000e+00	2.000000e+00	4.322337e-03	
1085	1.820000e+00	2.000000e+00	4.328491e-03	
1086	1.830000e+00	2.000000e+00	4.334557e-03	
1087	1.840000e+00	2.000000e+00	4.340537e-03	
1088	1.850000e+00	2.000000e+00	4.346434e-03	
1089	1.860000e+00	2.000000e+00	4.352248e-03	
1090	1.870000e+00	2.000000e+00	4.357981e-03	
1091	1.880000e+00	2.000000e+00	4.363635e-03	
1092	1.890000e+00	2.000000e+00	4.369212e-03	
1093	1.900000e+00	2.000000e+00	4.374713e-03	
1094	1.910000e+00	2.000000e+00	4.380140e-03	
1095	1.920000e+00	2.000000e+00	4.385494e-03	
1096	1.930000e+00	2.000000e+00	4.390777e-03	
1097	1.940000e+00	2.000000e+00	4.395991e-03	
1098	1.950000e+00	2.000000e+00	4.401136e-03	

Index   v-sweep         v(g)            vs#branch       
--------------------------------------------------------------------------------
1099	1.960000e+00	2.000000e+00	4.406214e-03	
1100	1.970000e+00	2.000000e+00	4.411227e-03	
1101	1.980000e+00	2.000000e+00	4.416176e-03	
1102	1.990000e+00	2.000000e+00	4.421062e-03	
1103	2.000000e+00	2.000000e+00	4.425886e-03	
1104	2.010000e+00	2.000000e+00	4.430651e-03	
1105	2.020000e+00	2.000000e+00	4.435356e-03	
1106	2.030000e+00	2.000000e+00	4.440003e-03	
1107	2.040000e+00	2.000000e+00	4.444594e-03	
1108	2.050000e+00	2.000000e+00	4.449129e-03	
1109	2.060000e+00	2.000000e+00	4.453609e-03	
1110	2.070000e+00	2.000000e+00	4.458036e-03	
1111	2.080000e+00	2.000000e+00	4.462411e-03	
1112	2.090000e+00	2.000000e+00	4.466734e-03	
1113	2.100000e+00	2.000000e+00	4.471007e-03	
1114	2.110000e+00	2.000000e+00	4.475231e-03	
1115	2.120000e+00	2.000000e+00	4.479405e-03	
1116	2.130000e+00	2.000000e+00	4.483533e-03	
1117	2.140000e+00	2.000000e+00	4.487613e-03	
1118	2.150000e+00	2.000000e+00	4.491648e-03	
1119	2.160000e+00	2.000000e+00	4.495637e-03	
1120	2.170000e+00	2.000000e+00	4.499583e-03	
1121	2.180000e+00	2.000000e+00	4.503484e-03	
1122	2.190000e+00	2.000000e+00	4.507343e-03	
1123	2.200000e+00	2.000000e+00	4.511160e-03	
1124	2.210000e+00	2.000000e+00	4.514936e-03	
1125	2.220000e+00	2.000000e+00	4.518671e-03	
1126	2.230000e+00	2.000000e+00	4.522367e-03	
1127	2.240000e+00	2.000000e+00	4.526023e-03	
1128	2.250000e+00	2.000000e+00	4.529640e-03	
1129	2.260000e+00	2.000000e+00	4.533220e-03	
1130	2.270000e+00	2.000000e+00	4.536762e-03	
1131	2.280000e+00	2.000000e+00	4.540267e-03	
1132	2.290000e+00	2.000000e+00	4.543737e-03	
1133	2.300000e+00	2.000000e+00	4.547170e-03	
1134	2.310000e+00	2.000000e+00	4.550569e-03	
1135	2.320000e+00	2.000000e+00	4.553933e-03	
1136	2.330000e+00	2.000000e+00	4.557262e-03	
1137	2.340000e+00	2.000000e+00	4.560559e-03	
1138	2.350000e+00	2.000000e+00	4.563822e-03	
1139	2.360000e+00	2.000000e+00	4.567053e-03	
1140	2.370000e+00	2.000000e+00	4.570251e-03	
1141	2.380000e+00	2.000000e+00	4.573418e-03	
1142	2.390000e+00	2.000000e+00	4.576553e-03	
1143	2.400000e+00	2.000000e+00	4.579658e-03	
1144	2.410000e+00	2.000000e+00	4.582732e-03	
1145	2.420000e+00	2.000000e+00	4.585776e-03	
1146	2.430000e+00	2.000000e+00	4.588790e-03	
1147	2.440000e+00	2.000000e+00	4.591776e-03	
1148	2.450000e+00	2.000000e+00	4.594732e-03	
1149	2.460000e+00	2.000000e+00	4.597659e-03	
1150	2.470000e+00	2.000000e+00	4.600559e-03	
1151	2.480000e+00	2.000000e+00	4.603430e-03	
1152	2.490000e+00	2.000000e+00	4.606274e-03	
1153	2.500000e+00	2.000000e+00	4.609091e-03	
1154	2.510000e+00	2.000000e+00	4.611881e-03	
1155	2.520000e+00	2.000000e+00	4.614644e-03	
1156	2.530000e+00	2.000000e+00	4.617380e-03	

Index   v-sweep         v(g)            vs#branch       
--------------------------------------------------------------------------------
1157	2.540000e+00	2.000000e+00	4.620091e-03	
1158	2.550000e+00	2.000000e+00	4.622776e-03	
1159	2.560000e+00	2.000000e+00	4.625435e-03	
1160	2.570000e+00	2.000000e+00	4.628070e-03	
1161	2.580000e+00	2.000000e+00	4.630679e-03	
1162	2.590000e+00	2.000000e+00	4.633263e-03	
1163	2.600000e+00	2.000000e+00	4.635823e-03	
1164	2.610000e+00	2.000000e+00	4.638359e-03	
1165	2.620000e+00	2.000000e+00	4.640871e-03	
1166	2.630000e+00	2.000000e+00	4.643359e-03	
1167	2.640000e+00	2.000000e+00	4.645824e-03	
1168	2.650000e+00	2.000000e+00	4.648266e-03	
1169	2.660000e+00	2.000000e+00	4.650684e-03	
1170	2.670000e+00	2.000000e+00	4.653080e-03	
1171	2.680000e+00	2.000000e+00	4.655453e-03	
1172	2.690000e+00	2.000000e+00	4.657803e-03	
1173	2.700000e+00	2.000000e+00	4.660132e-03	
1174	2.710000e+00	2.000000e+00	4.662439e-03	
1175	2.720000e+00	2.000000e+00	4.664723e-03	
1176	2.730000e+00	2.000000e+00	4.666987e-03	
1177	2.740000e+00	2.000000e+00	4.669229e-03	
1178	2.750000e+00	2.000000e+00	4.671450e-03	
1179	2.760000e+00	2.000000e+00	4.673650e-03	
1180	2.770000e+00	2.000000e+00	4.675830e-03	
1181	2.780000e+00	2.000000e+00	4.677989e-03	
1182	2.790000e+00	2.000000e+00	4.680128e-03	
1183	2.800000e+00	2.000000e+00	4.682247e-03	
1184	2.810000e+00	2.000000e+00	4.684346e-03	
1185	2.820000e+00	2.000000e+00	4.686426e-03	
1186	2.830000e+00	2.000000e+00	4.688486e-03	
1187	2.840000e+00	2.000000e+00	4.690527e-03	
1188	2.850000e+00	2.000000e+00	4.692549e-03	
1189	2.860000e+00	2.000000e+00	4.694552e-03	
1190	2.870000e+00	2.000000e+00	4.696537e-03	
1191	2.880000e+00	2.000000e+00	4.698504e-03	
1192	2.890000e+00	2.000000e+00	4.700452e-03	
1193	2.900000e+00	2.000000e+00	4.702383e-03	
1194	2.910000e+00	2.000000e+00	4.704297e-03	
1195	2.920000e+00	2.000000e+00	4.706193e-03	
1196	2.930000e+00	2.000000e+00	4.708071e-03	
1197	2.940000e+00	2.000000e+00	4.709933e-03	
1198	2.950000e+00	2.000000e+00	4.711779e-03	
1199	2.960000e+00	2.000000e+00	4.713608e-03	
1200	2.970000e+00	2.000000e+00	4.715421e-03	
1201	2.980000e+00	2.000000e+00	4.717218e-03	
1202	2.990000e+00	2.000000e+00	4.719000e-03	
1203	3.000000e+00	2.000000e+00	4.720766e-03	
1204	0.000000e+00	2.500000e+00	-5.161596e-35	
1205	1.000000e-02	2.500000e+00	5.946712e-05	
1206	2.000000e-02	2.500000e+00	1.186031e-04	
1207	3.000000e-02	2.500000e+00	1.774084e-04	
1208	4.000000e-02	2.500000e+00	2.358836e-04	
1209	5.000000e-02	2.500000e+00	2.940291e-04	
1210	6.000000e-02	2.500000e+00	3.518455e-04	
1211	7.000000e-02	2.500000e+00	4.093333e-04	
1212	8.000000e-02	2.500000e+00	4.664929e-04	
1213	9.000000e-02	2.500000e+00	5.233249e-04	
1214	1.000000e-01	2.500000e+00	5.798297e-04	

Index   v-sweep         v(g)            vs#branch       
--------------------------------------------------------------------------------
1215	1.100000e-01	2.500000e+00	6.360079e-04	
1216	1.200000e-01	2.500000e+00	6.918600e-04	
1217	1.300000e-01	2.500000e+00	7.473864e-04	
1218	1.400000e-01	2.500000e+00	8.025876e-04	
1219	1.500000e-01	2.500000e+00	8.574642e-04	
1220	1.600000e-01	2.500000e+00	9.120167e-04	
1221	1.700000e-01	2.500000e+00	9.662454e-04	
1222	1.800000e-01	2.500000e+00	1.020151e-03	
1223	1.900000e-01	2.500000e+00	1.073734e-03	
1224	2.000000e-01	2.500000e+00	1.126995e-03	
1225	2.100000e-01	2.500000e+00	1.179933e-03	
1226	2.200000e-01	2.500000e+00	1.232551e-03	
1227	2.300000e-01	2.500000e+00	1.284848e-03	
1228	2.400000e-01	2.500000e+00	1.336825e-03	
1229	2.500000e-01	2.500000e+00	1.388482e-03	
1230	2.600000e-01	2.500000e+00	1.439819e-03	
1231	2.700000e-01	2.500000e+00	1.490838e-03	
1232	2.800000e-01	2.500000e+00	1.541538e-03	
1233	2.900000e-01	2.500000e+00	1.591921e-03	
1234	3.000000e-01	2.500000e+00	1.641986e-03	
1235	3.100000e-01	2.500000e+00	1.691734e-03	
1236	3.200000e-01	2.500000e+00	1.741166e-03	
1237	3.300000e-01	2.500000e+00	1.790282e-03	
1238	3.400000e-01	2.500000e+00	1.839082e-03	
1239	3.500000e-01	2.500000e+00	1.887567e-03	
1240	3.600000e-01	2.500000e+00	1.935738e-03	
1241	3.700000e-01	2.500000e+00	1.983595e-03	
1242	3.800000e-01	2.500000e+00	2.031138e-03	
1243	3.900000e-01	2.500000e+00	2.078367e-03	
1244	4.000000e-01	2.500000e+00	2.125285e-03	
1245	4.100000e-01	2.500000e+00	2.171889e-03	
1246	4.200000e-01	2.500000e+00	2.218182e-03	
1247	4.300000e-01	2.500000e+00	2.264164e-03	
1248	4.400000e-01	2.500000e+00	2.309835e-03	
1249	4.500000e-01	2.500000e+00	2.355195e-03	
1250	4.600000e-01	2.500000e+00	2.400246e-03	
1251	4.700000e-01	2.500000e+00	2.444987e-03	
1252	4.800000e-01	2.500000e+00	2.489418e-03	
1253	4.900000e-01	2.500000e+00	2.533542e-03	
1254	5.000000e-01	2.500000e+00	2.577357e-03	
1255	5.100000e-01	2.500000e+00	2.620864e-03	
1256	5.200000e-01	2.500000e+00	2.664064e-03	
1257	5.300000e-01	2.500000e+00	2.706957e-03	
1258	5.400000e-01	2.500000e+00	2.749544e-03	
1259	5.500000e-01	2.500000e+00	2.791825e-03	
1260	5.600000e-01	2.500000e+00	2.833800e-03	
1261	5.700000e-01	2.500000e+00	2.875470e-03	
1262	5.800000e-01	2.500000e+00	2.916836e-03	
1263	5.900000e-01	2.500000e+00	2.957897e-03	
1264	6.000000e-01	2.500000e+00	2.998654e-03	
1265	6.100000e-01	2.500000e+00	3.039109e-03	
1266	6.200000e-01	2.500000e+00	3.079260e-03	
1267	6.300000e-01	2.500000e+00	3.119108e-03	
1268	6.400000e-01	2.500000e+00	3.158655e-03	
1269	6.500000e-01	2.500000e+00	3.197899e-03	
1270	6.600000e-01	2.500000e+00	3.236843e-03	
1271	6.700000e-01	2.500000e+00	3.275485e-03	
1272	6.800000e-01	2.500000e+00	3.313827e-03	

Index   v-sweep         v(g)            vs#branch       
--------------------------------------------------------------------------------
1273	6.900000e-01	2.500000e+00	3.351869e-03	
1274	7.000000e-01	2.500000e+00	3.389611e-03	
1275	7.100000e-01	2.500000e+00	3.427054e-03	
1276	7.200000e-01	2.500000e+00	3.464198e-03	
1277	7.300000e-01	2.500000e+00	3.501044e-03	
1278	7.400000e-01	2.500000e+00	3.537591e-03	
1279	7.500000e-01	2.500000e+00	3.573841e-03	
1280	7.600000e-01	2.500000e+00	3.609793e-03	
1281	7.700000e-01	2.500000e+00	3.645448e-03	
1282	7.800000e-01	2.500000e+00	3.680807e-03	
1283	7.900000e-01	2.500000e+00	3.715869e-03	
1284	8.000000e-01	2.500000e+00	3.750635e-03	
1285	8.100000e-01	2.500000e+00	3.785106e-03	
1286	8.200000e-01	2.500000e+00	3.819282e-03	
1287	8.300000e-01	2.500000e+00	3.853162e-03	
1288	8.400000e-01	2.500000e+00	3.886749e-03	
1289	8.500000e-01	2.500000e+00	3.920040e-03	
1290	8.600000e-01	2.500000e+00	3.953038e-03	
1291	8.700000e-01	2.500000e+00	3.985743e-03	
1292	8.800000e-01	2.500000e+00	4.018154e-03	
1293	8.900000e-01	2.500000e+00	4.050272e-03	
1294	9.000000e-01	2.500000e+00	4.082097e-03	
1295	9.100000e-01	2.500000e+00	4.113630e-03	
1296	9.200000e-01	2.500000e+00	4.144870e-03	
1297	9.300000e-01	2.500000e+00	4.175819e-03	
1298	9.400000e-01	2.500000e+00	4.206476e-03	
1299	9.500000e-01	2.500000e+00	4.236841e-03	
1300	9.600000e-01	2.500000e+00	4.266916e-03	
1301	9.700000e-01	2.500000e+00	4.296699e-03	
1302	9.800000e-01	2.500000e+00	4.326191e-03	
1303	9.900000e-01	2.500000e+00	4.355392e-03	
1304	1.000000e+00	2.500000e+00	4.384303e-03	
1305	1.010000e+00	2.500000e+00	4.412923e-03	
1306	1.020000e+00	2.500000e+00	4.441253e-03	
1307	1.030000e+00	2.500000e+00	4.469292e-03	
1308	1.040000e+00	2.500000e+00	4.497041e-03	
1309	1.050000e+00	2.500000e+00	4.524500e-03	
1310	1.060000e+00	2.500000e+00	4.551669e-03	
1311	1.070000e+00	2.500000e+00	4.578547e-03	
1312	1.080000e+00	2.500000e+00	4.605135e-03	
1313	1.090000e+00	2.500000e+00	4.631433e-03	
1314	1.100000e+00	2.500000e+00	4.657440e-03	
1315	1.110000e+00	2.500000e+00	4.683156e-03	
1316	1.120000e+00	2.500000e+00	4.708581e-03	
1317	1.130000e+00	2.500000e+00	4.733715e-03	
1318	1.140000e+00	2.500000e+00	4.758557e-03	
1319	1.150000e+00	2.500000e+00	4.783107e-03	
1320	1.160000e+00	2.500000e+00	4.807365e-03	
1321	1.170000e+00	2.500000e+00	4.831329e-03	
1322	1.180000e+00	2.500000e+00	4.855000e-03	
1323	1.190000e+00	2.500000e+00	4.878377e-03	
1324	1.200000e+00	2.500000e+00	4.901458e-03	
1325	1.210000e+00	2.500000e+00	4.924244e-03	
1326	1.220000e+00	2.500000e+00	4.946733e-03	
1327	1.230000e+00	2.500000e+00	4.968923e-03	
1328	1.240000e+00	2.500000e+00	4.990815e-03	
1329	1.250000e+00	2.500000e+00	5.012406e-03	
1330	1.260000e+00	2.500000e+00	5.033696e-03	

Index   v-sweep         v(g)            vs#branch       
--------------------------------------------------------------------------------
1331	1.270000e+00	2.500000e+00	5.054682e-03	
1332	1.280000e+00	2.500000e+00	5.075363e-03	
1333	1.290000e+00	2.500000e+00	5.095737e-03	
1334	1.300000e+00	2.500000e+00	5.115801e-03	
1335	1.310000e+00	2.500000e+00	5.135555e-03	
1336	1.320000e+00	2.500000e+00	5.154995e-03	
1337	1.330000e+00	2.500000e+00	5.174118e-03	
1338	1.340000e+00	2.500000e+00	5.192922e-03	
1339	1.350000e+00	2.500000e+00	5.211404e-03	
1340	1.360000e+00	2.500000e+00	5.229560e-03	
1341	1.370000e+00	2.500000e+00	5.247387e-03	
1342	1.380000e+00	2.500000e+00	5.264881e-03	
1343	1.390000e+00	2.500000e+00	5.282039e-03	
1344	1.400000e+00	2.500000e+00	5.298856e-03	
1345	1.410000e+00	2.500000e+00	5.315327e-03	
1346	1.420000e+00	2.500000e+00	5.331449e-03	
1347	1.430000e+00	2.500000e+00	5.347217e-03	
1348	1.440000e+00	2.500000e+00	5.362626e-03	
1349	1.450000e+00	2.500000e+00	5.377671e-03	
1350	1.460000e+00	2.500000e+00	5.392347e-03	
1351	1.470000e+00	2.500000e+00	5.406651e-03	
1352	1.480000e+00	2.500000e+00	5.420577e-03	
1353	1.490000e+00	2.500000e+00	5.434122e-03	
1354	1.500000e+00	2.500000e+00	5.447281e-03	
1355	1.510000e+00	2.500000e+00	5.460052e-03	
1356	1.520000e+00	2.500000e+00	5.472432e-03	
1357	1.530000e+00	2.500000e+00	5.484420e-03	
1358	1.540000e+00	2.500000e+00	5.496019e-03	
1359	1.550000e+00	2.500000e+00	5.507226e-03	
1360	1.560000e+00	2.500000e+00	5.518042e-03	
1361	1.570000e+00	2.500000e+00	5.528470e-03	
1362	1.580000e+00	2.500000e+00	5.538514e-03	
1363	1.590000e+00	2.500000e+00	5.548178e-03	
1364	1.600000e+00	2.500000e+00	5.557470e-03	
1365	1.610000e+00	2.500000e+00	5.566399e-03	
1366	1.620000e+00	2.500000e+00	5.574974e-03	
1367	1.630000e+00	2.500000e+00	5.583209e-03	
1368	1.640000e+00	2.500000e+00	5.591122e-03	
1369	1.650000e+00	2.500000e+00	5.598739e-03	
1370	1.660000e+00	2.500000e+00	5.606107e-03	
1371	1.670000e+00	2.500000e+00	5.613336e-03	
1372	1.680000e+00	2.500000e+00	5.620810e-03	
1373	1.690000e+00	2.500000e+00	5.629951e-03	
1374	1.700000e+00	2.500000e+00	5.641662e-03	
1375	1.710000e+00	2.500000e+00	5.654183e-03	
1376	1.720000e+00	2.500000e+00	5.666701e-03	
1377	1.730000e+00	2.500000e+00	5.679034e-03	
1378	1.740000e+00	2.500000e+00	5.691135e-03	
1379	1.750000e+00	2.500000e+00	5.702995e-03	
1380	1.760000e+00	2.500000e+00	5.714613e-03	
1381	1.770000e+00	2.500000e+00	5.725996e-03	
1382	1.780000e+00	2.500000e+00	5.737151e-03	
1383	1.790000e+00	2.500000e+00	5.748087e-03	
1384	1.800000e+00	2.500000e+00	5.758813e-03	
1385	1.810000e+00	2.500000e+00	5.769336e-03	
1386	1.820000e+00	2.500000e+00	5.779665e-03	
1387	1.830000e+00	2.500000e+00	5.789807e-03	
1388	1.840000e+00	2.500000e+00	5.799782e-03	

Index   v-sweep         v(g)            vs#branch       
--------------------------------------------------------------------------------
1389	1.850000e+00	2.500000e+00	5.809689e-03	
1390	1.860000e+00	2.500000e+00	5.819520e-03	
1391	1.870000e+00	2.500000e+00	5.829248e-03	
1392	1.880000e+00	2.500000e+00	5.838856e-03	
1393	1.890000e+00	2.500000e+00	5.848335e-03	
1394	1.900000e+00	2.500000e+00	5.857678e-03	
1395	1.910000e+00	2.500000e+00	5.866880e-03	
1396	1.920000e+00	2.500000e+00	5.875940e-03	
1397	1.930000e+00	2.500000e+00	5.884857e-03	
1398	1.940000e+00	2.500000e+00	5.893633e-03	
1399	1.950000e+00	2.500000e+00	5.902268e-03	
1400	1.960000e+00	2.500000e+00	5.910764e-03	
1401	1.970000e+00	2.500000e+00	5.919123e-03	
1402	1.980000e+00	2.500000e+00	5.927349e-03	
1403	1.990000e+00	2.500000e+00	5.935443e-03	
1404	2.000000e+00	2.500000e+00	5.943408e-03	
1405	2.010000e+00	2.500000e+00	5.951248e-03	
1406	2.020000e+00	2.500000e+00	5.958964e-03	
1407	2.030000e+00	2.500000e+00	5.966561e-03	
1408	2.040000e+00	2.500000e+00	5.974040e-03	
1409	2.050000e+00	2.500000e+00	5.981404e-03	
1410	2.060000e+00	2.500000e+00	5.988656e-03	
1411	2.070000e+00	2.500000e+00	5.995800e-03	
1412	2.080000e+00	2.500000e+00	6.002836e-03	
1413	2.090000e+00	2.500000e+00	6.009769e-03	
1414	2.100000e+00	2.500000e+00	6.016600e-03	
1415	2.110000e+00	2.500000e+00	6.023333e-03	
1416	2.120000e+00	2.500000e+00	6.029968e-03	
1417	2.130000e+00	2.500000e+00	6.036510e-03	
1418	2.140000e+00	2.500000e+00	6.042959e-03	
1419	2.150000e+00	2.500000e+00	6.049318e-03	
1420	2.160000e+00	2.500000e+00	6.055590e-03	
1421	2.170000e+00	2.500000e+00	6.061775e-03	
1422	2.180000e+00	2.500000e+00	6.067877e-03	
1423	2.190000e+00	2.500000e+00	6.073897e-03	
1424	2.200000e+00	2.500000e+00	6.079837e-03	
1425	2.210000e+00	2.500000e+00	6.085699e-03	
1426	2.220000e+00	2.500000e+00	6.091484e-03	
1427	2.230000e+00	2.500000e+00	6.097195e-03	
1428	2.240000e+00	2.500000e+00	6.102832e-03	
1429	2.250000e+00	2.500000e+00	6.108398e-03	
1430	2.260000e+00	2.500000e+00	6.113893e-03	
1431	2.270000e+00	2.500000e+00	6.119320e-03	
1432	2.280000e+00	2.500000e+00	6.124681e-03	
1433	2.290000e+00	2.500000e+00	6.129975e-03	
1434	2.300000e+00	2.500000e+00	6.135205e-03	
1435	2.310000e+00	2.500000e+00	6.140372e-03	
1436	2.320000e+00	2.500000e+00	6.145477e-03	
1437	2.330000e+00	2.500000e+00	6.150522e-03	
1438	2.340000e+00	2.500000e+00	6.155508e-03	
1439	2.350000e+00	2.500000e+00	6.160435e-03	
1440	2.360000e+00	2.500000e+00	6.165305e-03	
1441	2.370000e+00	2.500000e+00	6.170119e-03	
1442	2.380000e+00	2.500000e+00	6.174879e-03	
1443	2.390000e+00	2.500000e+00	6.179584e-03	
1444	2.400000e+00	2.500000e+00	6.184237e-03	
1445	2.410000e+00	2.500000e+00	6.188838e-03	
1446	2.420000e+00	2.500000e+00	6.193388e-03	

Index   v-sweep         v(g)            vs#branch       
--------------------------------------------------------------------------------
1447	2.430000e+00	2.500000e+00	6.197887e-03	
1448	2.440000e+00	2.500000e+00	6.202338e-03	
1449	2.450000e+00	2.500000e+00	6.206740e-03	
1450	2.460000e+00	2.500000e+00	6.211094e-03	
1451	2.470000e+00	2.500000e+00	6.215402e-03	
1452	2.480000e+00	2.500000e+00	6.219664e-03	
1453	2.490000e+00	2.500000e+00	6.223881e-03	
1454	2.500000e+00	2.500000e+00	6.228053e-03	
1455	2.510000e+00	2.500000e+00	6.232181e-03	
1456	2.520000e+00	2.500000e+00	6.236266e-03	
1457	2.530000e+00	2.500000e+00	6.240309e-03	
1458	2.540000e+00	2.500000e+00	6.244310e-03	
1459	2.550000e+00	2.500000e+00	6.248270e-03	
1460	2.560000e+00	2.500000e+00	6.252189e-03	
1461	2.570000e+00	2.500000e+00	6.256068e-03	
1462	2.580000e+00	2.500000e+00	6.259908e-03	
1463	2.590000e+00	2.500000e+00	6.263709e-03	
1464	2.600000e+00	2.500000e+00	6.267471e-03	
1465	2.610000e+00	2.500000e+00	6.271196e-03	
1466	2.620000e+00	2.500000e+00	6.274883e-03	
1467	2.630000e+00	2.500000e+00	6.278534e-03	
1468	2.640000e+00	2.500000e+00	6.282148e-03	
1469	2.650000e+00	2.500000e+00	6.285726e-03	
1470	2.660000e+00	2.500000e+00	6.289269e-03	
1471	2.670000e+00	2.500000e+00	6.292777e-03	
1472	2.680000e+00	2.500000e+00	6.296250e-03	
1473	2.690000e+00	2.500000e+00	6.299689e-03	
1474	2.700000e+00	2.500000e+00	6.303095e-03	
1475	2.710000e+00	2.500000e+00	6.306467e-03	
1476	2.720000e+00	2.500000e+00	6.309806e-03	
1477	2.730000e+00	2.500000e+00	6.313112e-03	
1478	2.740000e+00	2.500000e+00	6.316386e-03	
1479	2.750000e+00	2.500000e+00	6.319628e-03	
1480	2.760000e+00	2.500000e+00	6.322839e-03	
1481	2.770000e+00	2.500000e+00	6.326018e-03	
1482	2.780000e+00	2.500000e+00	6.329167e-03	
1483	2.790000e+00	2.500000e+00	6.332284e-03	
1484	2.800000e+00	2.500000e+00	6.335372e-03	
1485	2.810000e+00	2.500000e+00	6.338430e-03	
1486	2.820000e+00	2.500000e+00	6.341457e-03	
1487	2.830000e+00	2.500000e+00	6.344456e-03	
1488	2.840000e+00	2.500000e+00	6.347426e-03	
1489	2.850000e+00	2.500000e+00	6.350366e-03	
1490	2.860000e+00	2.500000e+00	6.353279e-03	
1491	2.870000e+00	2.500000e+00	6.356163e-03	
1492	2.880000e+00	2.500000e+00	6.359019e-03	
1493	2.890000e+00	2.500000e+00	6.361847e-03	
1494	2.900000e+00	2.500000e+00	6.364648e-03	
1495	2.910000e+00	2.500000e+00	6.367422e-03	
1496	2.920000e+00	2.500000e+00	6.370169e-03	
1497	2.930000e+00	2.500000e+00	6.372890e-03	
1498	2.940000e+00	2.500000e+00	6.375584e-03	
1499	2.950000e+00	2.500000e+00	6.378252e-03	
1500	2.960000e+00	2.500000e+00	6.380895e-03	
1501	2.970000e+00	2.500000e+00	6.383512e-03	
1502	2.980000e+00	2.500000e+00	6.386104e-03	
1503	2.990000e+00	2.500000e+00	6.388671e-03	
1504	3.000000e+00	2.500000e+00	6.391213e-03	

Index   v-sweep         v(g)            vs#branch       
--------------------------------------------------------------------------------
1505	0.000000e+00	3.000000e+00	-5.161596e-35	
1506	1.000000e-02	3.000000e+00	6.230785e-05	
1507	2.000000e-02	3.000000e+00	1.243329e-04	
1508	3.000000e-02	3.000000e+00	1.860755e-04	
1509	4.000000e-02	3.000000e+00	2.475361e-04	
1510	5.000000e-02	3.000000e+00	3.087150e-04	
1511	6.000000e-02	3.000000e+00	3.696125e-04	
1512	7.000000e-02	3.000000e+00	4.302290e-04	
1513	8.000000e-02	3.000000e+00	4.905649e-04	
1514	9.000000e-02	3.000000e+00	5.506206e-04	
1515	1.000000e-01	3.000000e+00	6.103963e-04	
1516	1.100000e-01	3.000000e+00	6.698925e-04	
1517	1.200000e-01	3.000000e+00	7.291094e-04	
1518	1.300000e-01	3.000000e+00	7.880476e-04	
1519	1.400000e-01	3.000000e+00	8.467072e-04	
1520	1.500000e-01	3.000000e+00	9.050888e-04	
1521	1.600000e-01	3.000000e+00	9.631925e-04	
1522	1.700000e-01	3.000000e+00	1.021019e-03	
1523	1.800000e-01	3.000000e+00	1.078568e-03	
1524	1.900000e-01	3.000000e+00	1.135841e-03	
1525	2.000000e-01	3.000000e+00	1.192837e-03	
1526	2.100000e-01	3.000000e+00	1.249557e-03	
1527	2.200000e-01	3.000000e+00	1.306002e-03	
1528	2.300000e-01	3.000000e+00	1.362171e-03	
1529	2.400000e-01	3.000000e+00	1.418065e-03	
1530	2.500000e-01	3.000000e+00	1.473685e-03	
1531	2.600000e-01	3.000000e+00	1.529030e-03	
1532	2.700000e-01	3.000000e+00	1.584102e-03	
1533	2.800000e-01	3.000000e+00	1.638899e-03	
1534	2.900000e-01	3.000000e+00	1.693424e-03	
1535	3.000000e-01	3.000000e+00	1.747676e-03	
1536	3.100000e-01	3.000000e+00	1.801655e-03	
1537	3.200000e-01	3.000000e+00	1.855362e-03	
1538	3.300000e-01	3.000000e+00	1.908798e-03	
1539	3.400000e-01	3.000000e+00	1.961961e-03	
1540	3.500000e-01	3.000000e+00	2.014854e-03	
1541	3.600000e-01	3.000000e+00	2.067476e-03	
1542	3.700000e-01	3.000000e+00	2.119827e-03	
1543	3.800000e-01	3.000000e+00	2.171908e-03	
1544	3.900000e-01	3.000000e+00	2.223719e-03	
1545	4.000000e-01	3.000000e+00	2.275261e-03	
1546	4.100000e-01	3.000000e+00	2.326534e-03	
1547	4.200000e-01	3.000000e+00	2.377538e-03	
1548	4.300000e-01	3.000000e+00	2.428273e-03	
1549	4.400000e-01	3.000000e+00	2.478740e-03	
1550	4.500000e-01	3.000000e+00	2.528940e-03	
1551	4.600000e-01	3.000000e+00	2.578872e-03	
1552	4.700000e-01	3.000000e+00	2.628537e-03	
1553	4.800000e-01	3.000000e+00	2.677935e-03	
1554	4.900000e-01	3.000000e+00	2.727067e-03	
1555	5.000000e-01	3.000000e+00	2.775932e-03	
1556	5.100000e-01	3.000000e+00	2.824532e-03	
1557	5.200000e-01	3.000000e+00	2.872866e-03	
1558	5.300000e-01	3.000000e+00	2.920936e-03	
1559	5.400000e-01	3.000000e+00	2.968740e-03	
1560	5.500000e-01	3.000000e+00	3.016280e-03	
1561	5.600000e-01	3.000000e+00	3.063555e-03	
1562	5.700000e-01	3.000000e+00	3.110567e-03	

Index   v-sweep         v(g)            vs#branch       
--------------------------------------------------------------------------------
1563	5.800000e-01	3.000000e+00	3.157315e-03	
1564	5.900000e-01	3.000000e+00	3.203801e-03	
1565	6.000000e-01	3.000000e+00	3.250023e-03	
1566	6.100000e-01	3.000000e+00	3.295982e-03	
1567	6.200000e-01	3.000000e+00	3.341680e-03	
1568	6.300000e-01	3.000000e+00	3.387115e-03	
1569	6.400000e-01	3.000000e+00	3.432289e-03	
1570	6.500000e-01	3.000000e+00	3.477202e-03	
1571	6.600000e-01	3.000000e+00	3.521853e-03	
1572	6.700000e-01	3.000000e+00	3.566244e-03	
1573	6.800000e-01	3.000000e+00	3.610375e-03	
1574	6.900000e-01	3.000000e+00	3.654246e-03	
1575	7.000000e-01	3.000000e+00	3.697856e-03	
1576	7.100000e-01	3.000000e+00	3.741208e-03	
1577	7.200000e-01	3.000000e+00	3.784300e-03	
1578	7.300000e-01	3.000000e+00	3.827134e-03	
1579	7.400000e-01	3.000000e+00	3.869709e-03	
1580	7.500000e-01	3.000000e+00	3.912026e-03	
1581	7.600000e-01	3.000000e+00	3.954085e-03	
1582	7.700000e-01	3.000000e+00	3.995886e-03	
1583	7.800000e-01	3.000000e+00	4.037430e-03	
1584	7.900000e-01	3.000000e+00	4.078717e-03	
1585	8.000000e-01	3.000000e+00	4.119748e-03	
1586	8.100000e-01	3.000000e+00	4.160522e-03	
1587	8.200000e-01	3.000000e+00	4.201039e-03	
1588	8.300000e-01	3.000000e+00	4.241302e-03	
1589	8.400000e-01	3.000000e+00	4.281308e-03	
1590	8.500000e-01	3.000000e+00	4.321060e-03	
1591	8.600000e-01	3.000000e+00	4.360556e-03	
1592	8.700000e-01	3.000000e+00	4.399798e-03	
1593	8.800000e-01	3.000000e+00	4.438785e-03	
1594	8.900000e-01	3.000000e+00	4.477519e-03	
1595	9.000000e-01	3.000000e+00	4.515998e-03	
1596	9.100000e-01	3.000000e+00	4.554224e-03	
1597	9.200000e-01	3.000000e+00	4.592197e-03	
1598	9.300000e-01	3.000000e+00	4.629917e-03	
1599	9.400000e-01	3.000000e+00	4.667384e-03	
1600	9.500000e-01	3.000000e+00	4.704598e-03	
1601	9.600000e-01	3.000000e+00	4.741561e-03	
1602	9.700000e-01	3.000000e+00	4.778271e-03	
1603	9.800000e-01	3.000000e+00	4.814730e-03	
1604	9.900000e-01	3.000000e+00	4.850938e-03	
1605	1.000000e+00	3.000000e+00	4.886894e-03	
1606	1.010000e+00	3.000000e+00	4.922599e-03	
1607	1.020000e+00	3.000000e+00	4.958054e-03	
1608	1.030000e+00	3.000000e+00	4.993258e-03	
1609	1.040000e+00	3.000000e+00	5.028213e-03	
1610	1.050000e+00	3.000000e+00	5.062917e-03	
1611	1.060000e+00	3.000000e+00	5.097371e-03	
1612	1.070000e+00	3.000000e+00	5.131576e-03	
1613	1.080000e+00	3.000000e+00	5.165532e-03	
1614	1.090000e+00	3.000000e+00	5.199238e-03	
1615	1.100000e+00	3.000000e+00	5.232696e-03	
1616	1.110000e+00	3.000000e+00	5.265905e-03	
1617	1.120000e+00	3.000000e+00	5.298866e-03	
1618	1.130000e+00	3.000000e+00	5.331579e-03	
1619	1.140000e+00	3.000000e+00	5.364043e-03	
1620	1.150000e+00	3.000000e+00	5.396259e-03	

Index   v-sweep         v(g)            vs#branch       
--------------------------------------------------------------------------------
1621	1.160000e+00	3.000000e+00	5.428228e-03	
1622	1.170000e+00	3.000000e+00	5.459949e-03	
1623	1.180000e+00	3.000000e+00	5.491423e-03	
1624	1.190000e+00	3.000000e+00	5.522650e-03	
1625	1.200000e+00	3.000000e+00	5.553629e-03	
1626	1.210000e+00	3.000000e+00	5.584361e-03	
1627	1.220000e+00	3.000000e+00	5.614847e-03	
1628	1.230000e+00	3.000000e+00	5.645086e-03	
1629	1.240000e+00	3.000000e+00	5.675078e-03	
1630	1.250000e+00	3.000000e+00	5.704823e-03	
1631	1.260000e+00	3.000000e+00	5.734322e-03	
1632	1.270000e+00	3.000000e+00	5.763574e-03	
1633	1.280000e+00	3.000000e+00	5.792580e-03	
1634	1.290000e+00	3.000000e+00	5.821340e-03	
1635	1.300000e+00	3.000000e+00	5.849853e-03	
1636	1.310000e+00	3.000000e+00	5.878119e-03	
1637	1.320000e+00	3.000000e+00	5.906139e-03	
1638	1.330000e+00	3.000000e+00	5.933913e-03	
1639	1.340000e+00	3.000000e+00	5.961439e-03	
1640	1.350000e+00	3.000000e+00	5.988719e-03	
1641	1.360000e+00	3.000000e+00	6.015753e-03	
1642	1.370000e+00	3.000000e+00	6.042539e-03	
1643	1.380000e+00	3.000000e+00	6.069078e-03	
1644	1.390000e+00	3.000000e+00	6.095369e-03	
1645	1.400000e+00	3.000000e+00	6.121412e-03	
1646	1.410000e+00	3.000000e+00	6.147208e-03	
1647	1.420000e+00	3.000000e+00	6.172755e-03	
1648	1.430000e+00	3.000000e+00	6.198053e-03	
1649	1.440000e+00	3.000000e+00	6.223103e-03	
1650	1.450000e+00	3.000000e+00	6.247902e-03	
1651	1.460000e+00	3.000000e+00	6.272451e-03	
1652	1.470000e+00	3.000000e+00	6.296750e-03	
1653	1.480000e+00	3.000000e+00	6.320797e-03	
1654	1.490000e+00	3.000000e+00	6.344591e-03	
1655	1.500000e+00	3.000000e+00	6.368133e-03	
1656	1.510000e+00	3.000000e+00	6.391421e-03	
1657	1.520000e+00	3.000000e+00	6.414454e-03	
1658	1.530000e+00	3.000000e+00	6.437231e-03	
1659	1.540000e+00	3.000000e+00	6.459751e-03	
1660	1.550000e+00	3.000000e+00	6.482013e-03	
1661	1.560000e+00	3.000000e+00	6.504016e-03	
1662	1.570000e+00	3.000000e+00	6.525757e-03	
1663	1.580000e+00	3.000000e+00	6.547236e-03	
1664	1.590000e+00	3.000000e+00	6.568451e-03	
1665	1.600000e+00	3.000000e+00	6.589399e-03	
1666	1.610000e+00	3.000000e+00	6.610079e-03	
1667	1.620000e+00	3.000000e+00	6.630489e-03	
1668	1.630000e+00	3.000000e+00	6.650626e-03	
1669	1.640000e+00	3.000000e+00	6.670489e-03	
1670	1.650000e+00	3.000000e+00	6.690073e-03	
1671	1.660000e+00	3.000000e+00	6.709377e-03	
1672	1.670000e+00	3.000000e+00	6.728397e-03	
1673	1.680000e+00	3.000000e+00	6.747131e-03	
1674	1.690000e+00	3.000000e+00	6.765574e-03	
1675	1.700000e+00	3.000000e+00	6.783723e-03	
1676	1.710000e+00	3.000000e+00	6.801574e-03	
1677	1.720000e+00	3.000000e+00	6.819124e-03	
1678	1.730000e+00	3.000000e+00	6.836368e-03	

Index   v-sweep         v(g)            vs#branch       
--------------------------------------------------------------------------------
1679	1.740000e+00	3.000000e+00	6.853301e-03	
1680	1.750000e+00	3.000000e+00	6.869920e-03	
1681	1.760000e+00	3.000000e+00	6.886219e-03	
1682	1.770000e+00	3.000000e+00	6.902197e-03	
1683	1.780000e+00	3.000000e+00	6.917850e-03	
1684	1.790000e+00	3.000000e+00	6.933172e-03	
1685	1.800000e+00	3.000000e+00	6.948157e-03	
1686	1.810000e+00	3.000000e+00	6.962802e-03	
1687	1.820000e+00	3.000000e+00	6.977103e-03	
1688	1.830000e+00	3.000000e+00	6.991057e-03	
1689	1.840000e+00	3.000000e+00	7.004661e-03	
1690	1.850000e+00	3.000000e+00	7.017915e-03	
1691	1.860000e+00	3.000000e+00	7.030820e-03	
1692	1.870000e+00	3.000000e+00	7.043383e-03	
1693	1.880000e+00	3.000000e+00	7.055618e-03	
1694	1.890000e+00	3.000000e+00	7.067565e-03	
1695	1.900000e+00	3.000000e+00	7.079343e-03	
1696	1.910000e+00	3.000000e+00	7.091434e-03	
1697	1.920000e+00	3.000000e+00	7.105554e-03	
1698	1.930000e+00	3.000000e+00	7.122055e-03	
1699	1.940000e+00	3.000000e+00	7.139058e-03	
1700	1.950000e+00	3.000000e+00	7.155925e-03	
1701	1.960000e+00	3.000000e+00	7.172511e-03	
1702	1.970000e+00	3.000000e+00	7.188777e-03	
1703	1.980000e+00	3.000000e+00	7.204708e-03	
1704	1.990000e+00	3.000000e+00	7.220304e-03	
1705	2.000000e+00	3.000000e+00	7.235569e-03	
1706	2.010000e+00	3.000000e+00	7.250506e-03	
1707	2.020000e+00	3.000000e+00	7.265123e-03	
1708	2.030000e+00	3.000000e+00	7.279428e-03	
1709	2.040000e+00	3.000000e+00	7.293427e-03	
1710	2.050000e+00	3.000000e+00	7.307129e-03	
1711	2.060000e+00	3.000000e+00	7.320545e-03	
1712	2.070000e+00	3.000000e+00	7.333774e-03	
1713	2.080000e+00	3.000000e+00	7.346839e-03	
1714	2.090000e+00	3.000000e+00	7.359711e-03	
1715	2.100000e+00	3.000000e+00	7.372370e-03	
1716	2.110000e+00	3.000000e+00	7.384806e-03	
1717	2.120000e+00	3.000000e+00	7.397012e-03	
1718	2.130000e+00	3.000000e+00	7.408987e-03	
1719	2.140000e+00	3.000000e+00	7.420730e-03	
1720	2.150000e+00	3.000000e+00	7.432244e-03	
1721	2.160000e+00	3.000000e+00	7.443532e-03	
1722	2.170000e+00	3.000000e+00	7.454599e-03	
1723	2.180000e+00	3.000000e+00	7.465448e-03	
1724	2.190000e+00	3.000000e+00	7.476085e-03	
1725	2.200000e+00	3.000000e+00	7.486516e-03	
1726	2.210000e+00	3.000000e+00	7.496746e-03	
1727	2.220000e+00	3.000000e+00	7.506780e-03	
1728	2.230000e+00	3.000000e+00	7.516625e-03	
1729	2.240000e+00	3.000000e+00	7.526285e-03	
1730	2.250000e+00	3.000000e+00	7.535766e-03	
1731	2.260000e+00	3.000000e+00	7.545074e-03	
1732	2.270000e+00	3.000000e+00	7.554214e-03	
1733	2.280000e+00	3.000000e+00	7.563190e-03	
1734	2.290000e+00	3.000000e+00	7.572008e-03	
1735	2.300000e+00	3.000000e+00	7.580673e-03	
1736	2.310000e+00	3.000000e+00	7.589188e-03	

Index   v-sweep         v(g)            vs#branch       
--------------------------------------------------------------------------------
1737	2.320000e+00	3.000000e+00	7.597560e-03	
1738	2.330000e+00	3.000000e+00	7.605791e-03	
1739	2.340000e+00	3.000000e+00	7.613886e-03	
1740	2.350000e+00	3.000000e+00	7.621849e-03	
1741	2.360000e+00	3.000000e+00	7.629684e-03	
1742	2.370000e+00	3.000000e+00	7.637395e-03	
1743	2.380000e+00	3.000000e+00	7.644984e-03	
1744	2.390000e+00	3.000000e+00	7.652457e-03	
1745	2.400000e+00	3.000000e+00	7.659815e-03	
1746	2.410000e+00	3.000000e+00	7.667062e-03	
1747	2.420000e+00	3.000000e+00	7.674201e-03	
1748	2.430000e+00	3.000000e+00	7.681235e-03	
1749	2.440000e+00	3.000000e+00	7.688167e-03	
1750	2.450000e+00	3.000000e+00	7.694999e-03	
1751	2.460000e+00	3.000000e+00	7.701735e-03	
1752	2.470000e+00	3.000000e+00	7.708376e-03	
1753	2.480000e+00	3.000000e+00	7.714926e-03	
1754	2.490000e+00	3.000000e+00	7.721385e-03	
1755	2.500000e+00	3.000000e+00	7.727757e-03	
1756	2.510000e+00	3.000000e+00	7.734044e-03	
1757	2.520000e+00	3.000000e+00	7.740248e-03	
1758	2.530000e+00	3.000000e+00	7.746371e-03	
1759	2.540000e+00	3.000000e+00	7.752414e-03	
1760	2.550000e+00	3.000000e+00	7.758380e-03	
1761	2.560000e+00	3.000000e+00	7.764270e-03	
1762	2.570000e+00	3.000000e+00	7.770086e-03	
1763	2.580000e+00	3.000000e+00	7.775830e-03	
1764	2.590000e+00	3.000000e+00	7.781504e-03	
1765	2.600000e+00	3.000000e+00	7.787108e-03	
1766	2.610000e+00	3.000000e+00	7.792644e-03	
1767	2.620000e+00	3.000000e+00	7.798114e-03	
1768	2.630000e+00	3.000000e+00	7.803519e-03	
1769	2.640000e+00	3.000000e+00	7.808861e-03	
1770	2.650000e+00	3.000000e+00	7.814140e-03	
1771	2.660000e+00	3.000000e+00	7.819358e-03	
1772	2.670000e+00	3.000000e+00	7.824517e-03	
1773	2.680000e+00	3.000000e+00	7.829616e-03	
1774	2.690000e+00	3.000000e+00	7.834658e-03	
1775	2.700000e+00	3.000000e+00	7.839644e-03	
1776	2.710000e+00	3.000000e+00	7.844574e-03	
1777	2.720000e+00	3.000000e+00	7.849449e-03	
1778	2.730000e+00	3.000000e+00	7.854271e-03	
1779	2.740000e+00	3.000000e+00	7.859040e-03	
1780	2.750000e+00	3.000000e+00	7.863758e-03	
1781	2.760000e+00	3.000000e+00	7.868424e-03	
1782	2.770000e+00	3.000000e+00	7.873041e-03	
1783	2.780000e+00	3.000000e+00	7.877608e-03	
1784	2.790000e+00	3.000000e+00	7.882127e-03	
1785	2.800000e+00	3.000000e+00	7.886598e-03	
1786	2.810000e+00	3.000000e+00	7.891022e-03	
1787	2.820000e+00	3.000000e+00	7.895400e-03	
1788	2.830000e+00	3.000000e+00	7.899732e-03	
1789	2.840000e+00	3.000000e+00	7.904020e-03	
1790	2.850000e+00	3.000000e+00	7.908263e-03	
1791	2.860000e+00	3.000000e+00	7.912462e-03	
1792	2.870000e+00	3.000000e+00	7.916619e-03	
1793	2.880000e+00	3.000000e+00	7.920732e-03	
1794	2.890000e+00	3.000000e+00	7.924804e-03	

Index   v-sweep         v(g)            vs#branch       
--------------------------------------------------------------------------------
1795	2.900000e+00	3.000000e+00	7.928835e-03	
1796	2.910000e+00	3.000000e+00	7.932825e-03	
1797	2.920000e+00	3.000000e+00	7.936774e-03	
1798	2.930000e+00	3.000000e+00	7.940684e-03	
1799	2.940000e+00	3.000000e+00	7.944554e-03	
1800	2.950000e+00	3.000000e+00	7.948385e-03	
1801	2.960000e+00	3.000000e+00	7.952178e-03	
1802	2.970000e+00	3.000000e+00	7.955933e-03	
1803	2.980000e+00	3.000000e+00	7.959651e-03	
1804	2.990000e+00	3.000000e+00	7.963331e-03	
1805	3.000000e+00	3.000000e+00	7.966974e-03	

CPU time since last call: 0.157 seconds.

Total CPU time: 0.157 seconds.

Current dynamic memory usage = 270336,
Dynamic memory limit = -491521.

