
No. of Data Rows : 1359

Circuit: *model = BSIMSOI (DD)

Doing analysis at TEMP = 300.150000 and TNOM = 300.150000
Warning: Pd = 0 is less than W.
Warning: Ps = 0 is less than W.
                             *model = BSIMSOI (DD)
--------------------------------------------------------------------------------
Index   v-sweep         vs#branch       
--------------------------------------------------------------------------------
0	0.000000e+00	4.146227e-12	
1	1.000000e-02	5.646211e-12	
2	2.000000e-02	8.545267e-12	
3	3.000000e-02	1.226404e-11	
4	4.000000e-02	1.759728e-11	
5	5.000000e-02	2.524361e-11	
6	6.000000e-02	3.620261e-11	
7	7.000000e-02	5.190353e-11	
8	8.000000e-02	7.438857e-11	
9	9.000000e-02	1.065733e-10	
10	1.000000e-01	1.526162e-10	
11	1.100000e-01	2.184419e-10	
12	1.200000e-01	3.124799e-10	
13	1.300000e-01	4.467056e-10	
14	1.400000e-01	6.381011e-10	
15	1.500000e-01	9.106977e-10	
16	1.600000e-01	1.298398e-09	
17	1.700000e-01	1.848760e-09	
18	1.800000e-01	2.628478e-09	
19	1.900000e-01	3.730652e-09	
20	2.000000e-01	5.284624e-09	
21	2.100000e-01	7.469127e-09	
22	2.200000e-01	1.052965e-08	
23	2.300000e-01	1.480108e-08	
24	2.400000e-01	2.073668e-08	
25	2.500000e-01	2.894472e-08	
26	2.600000e-01	4.023376e-08	
27	2.700000e-01	5.566760e-08	
28	2.800000e-01	7.663072e-08	
29	2.900000e-01	1.049046e-07	
30	3.000000e-01	1.427557e-07	
31	3.100000e-01	1.930347e-07	
32	3.200000e-01	2.592898e-07	
33	3.300000e-01	3.458940e-07	
34	3.400000e-01	4.581896e-07	
35	3.500000e-01	6.026505e-07	
36	3.600000e-01	7.870605e-07	
37	3.700000e-01	1.020699e-06	
38	3.800000e-01	1.314508e-06	
39	3.900000e-01	1.681213e-06	
40	4.000000e-01	2.135318e-06	
41	4.100000e-01	2.692908e-06	
42	4.200000e-01	3.371145e-06	
43	4.300000e-01	4.187271e-06	
44	4.400000e-01	5.156795e-06	
45	4.500000e-01	6.290054e-06	
46	4.600000e-01	7.586744e-06	
47	4.700000e-01	9.036984e-06	
48	4.800000e-01	1.063872e-05	
49	4.900000e-01	1.239891e-05	
50	5.000000e-01	1.432076e-05	
51	5.100000e-01	1.640136e-05	
52	5.200000e-01	1.863330e-05	
53	5.300000e-01	2.100609e-05	
54	5.400000e-01	2.350716e-05	

Index   v-sweep         vs#branch       
--------------------------------------------------------------------------------
55	5.500000e-01	2.612264e-05	
56	5.600000e-01	2.883806e-05	
57	5.700000e-01	3.163886e-05	
58	5.800000e-01	3.451090e-05	
59	5.900000e-01	3.744072e-05	
60	6.000000e-01	4.041582e-05	
61	6.100000e-01	4.342478e-05	
62	6.200000e-01	4.645735e-05	
63	6.300000e-01	4.950441e-05	
64	6.400000e-01	5.255799e-05	
65	6.500000e-01	5.561117e-05	
66	6.600000e-01	5.865801e-05	
67	6.700000e-01	6.169348e-05	
68	6.800000e-01	6.471330e-05	
69	6.900000e-01	6.771394e-05	
70	7.000000e-01	7.069245e-05	
71	7.100000e-01	7.364643e-05	
72	7.200000e-01	7.657391e-05	
73	7.300000e-01	7.947334e-05	
74	7.400000e-01	8.234349e-05	
75	7.500000e-01	8.518340e-05	
76	7.600000e-01	8.799237e-05	
77	7.700000e-01	9.076988e-05	
78	7.800000e-01	9.351559e-05	
79	7.900000e-01	9.622928e-05	
80	8.000000e-01	9.891086e-05	
81	8.100000e-01	1.015603e-04	
82	8.200000e-01	1.041778e-04	
83	8.300000e-01	1.067633e-04	
84	8.400000e-01	1.093172e-04	
85	8.500000e-01	1.118396e-04	
86	8.600000e-01	1.143308e-04	
87	8.700000e-01	1.167912e-04	
88	8.800000e-01	1.192210e-04	
89	8.900000e-01	1.216206e-04	
90	9.000000e-01	1.239903e-04	
91	9.100000e-01	1.263305e-04	
92	9.200000e-01	1.286416e-04	
93	9.300000e-01	1.309239e-04	
94	9.400000e-01	1.331779e-04	
95	9.500000e-01	1.354039e-04	
96	9.600000e-01	1.376022e-04	
97	9.700000e-01	1.397733e-04	
98	9.800000e-01	1.419176e-04	
99	9.900000e-01	1.440353e-04	
100	1.000000e+00	1.461269e-04	
101	1.010000e+00	1.481928e-04	
102	1.020000e+00	1.502333e-04	
103	1.030000e+00	1.522487e-04	
104	1.040000e+00	1.542394e-04	
105	1.050000e+00	1.562059e-04	
106	1.060000e+00	1.581483e-04	
107	1.070000e+00	1.600671e-04	
108	1.080000e+00	1.619625e-04	
109	1.090000e+00	1.638350e-04	
110	1.100000e+00	1.656848e-04	
111	1.110000e+00	1.675123e-04	
112	1.120000e+00	1.693178e-04	

Index   v-sweep         vs#branch       
--------------------------------------------------------------------------------
113	1.130000e+00	1.711015e-04	
114	1.140000e+00	1.728639e-04	
115	1.150000e+00	1.746051e-04	
116	1.160000e+00	1.763255e-04	
117	1.170000e+00	1.780254e-04	
118	1.180000e+00	1.797050e-04	
119	1.190000e+00	1.813647e-04	
120	1.200000e+00	1.830047e-04	
121	1.210000e+00	1.846253e-04	
122	1.220000e+00	1.862267e-04	
123	1.230000e+00	1.878092e-04	
124	1.240000e+00	1.893732e-04	
125	1.250000e+00	1.909188e-04	
126	1.260000e+00	1.924462e-04	
127	1.270000e+00	1.939558e-04	
128	1.280000e+00	1.954477e-04	
129	1.290000e+00	1.969223e-04	
130	1.300000e+00	1.983797e-04	
131	1.310000e+00	1.998202e-04	
132	1.320000e+00	2.012439e-04	
133	1.330000e+00	2.026512e-04	
134	1.340000e+00	2.040423e-04	
135	1.350000e+00	2.054173e-04	
136	1.360000e+00	2.067764e-04	
137	1.370000e+00	2.081200e-04	
138	1.380000e+00	2.094481e-04	
139	1.390000e+00	2.107610e-04	
140	1.400000e+00	2.120589e-04	
141	1.410000e+00	2.133420e-04	
142	1.420000e+00	2.146104e-04	
143	1.430000e+00	2.158644e-04	
144	1.440000e+00	2.171042e-04	
145	1.450000e+00	2.183299e-04	
146	1.460000e+00	2.195417e-04	
147	1.470000e+00	2.207398e-04	
148	1.480000e+00	2.219244e-04	
149	1.490000e+00	2.230956e-04	
150	1.500000e+00	2.242536e-04	
151	0.000000e+00	4.146482e-12	
152	1.000000e-02	5.646551e-12	
153	2.000000e-02	8.545765e-12	
154	3.000000e-02	1.226474e-11	
155	4.000000e-02	1.759825e-11	
156	5.000000e-02	2.524497e-11	
157	6.000000e-02	3.620450e-11	
158	7.000000e-02	5.190617e-11	
159	8.000000e-02	7.439226e-11	
160	9.000000e-02	1.065785e-10	
161	1.000000e-01	1.526234e-10	
162	1.100000e-01	2.184519e-10	
163	1.200000e-01	3.124937e-10	
164	1.300000e-01	4.467248e-10	
165	1.400000e-01	6.381277e-10	
166	1.500000e-01	9.107344e-10	
167	1.600000e-01	1.298449e-09	
168	1.700000e-01	1.848830e-09	
169	1.800000e-01	2.628573e-09	
170	1.900000e-01	3.730782e-09	

Index   v-sweep         vs#branch       
--------------------------------------------------------------------------------
171	2.000000e-01	5.284801e-09	
172	2.100000e-01	7.469365e-09	
173	2.200000e-01	1.052997e-08	
174	2.300000e-01	1.480151e-08	
175	2.400000e-01	2.073725e-08	
176	2.500000e-01	2.894546e-08	
177	2.600000e-01	4.023472e-08	
178	2.700000e-01	5.566883e-08	
179	2.800000e-01	7.663228e-08	
180	2.900000e-01	1.049066e-07	
181	3.000000e-01	1.427581e-07	
182	3.100000e-01	1.930377e-07	
183	3.200000e-01	2.592935e-07	
184	3.300000e-01	3.458986e-07	
185	3.400000e-01	4.581953e-07	
186	3.500000e-01	6.026578e-07	
187	3.600000e-01	7.870701e-07	
188	3.700000e-01	1.020712e-06	
189	3.800000e-01	1.314526e-06	
190	3.900000e-01	1.681238e-06	
191	4.000000e-01	2.135353e-06	
192	4.100000e-01	2.692957e-06	
193	4.200000e-01	3.371213e-06	
194	4.300000e-01	4.187363e-06	
195	4.400000e-01	5.156917e-06	
196	4.500000e-01	6.290212e-06	
197	4.600000e-01	7.586942e-06	
198	4.700000e-01	9.037226e-06	
199	4.800000e-01	1.063901e-05	
200	4.900000e-01	1.239925e-05	
201	5.000000e-01	1.432115e-05	
202	5.100000e-01	1.640180e-05	
203	5.200000e-01	1.863378e-05	
204	5.300000e-01	2.100662e-05	
205	5.400000e-01	2.350774e-05	
206	5.500000e-01	2.612326e-05	
207	5.600000e-01	2.883871e-05	
208	5.700000e-01	3.163955e-05	
209	5.800000e-01	3.451161e-05	
210	5.900000e-01	3.744145e-05	
211	6.000000e-01	4.041657e-05	
212	6.100000e-01	4.342555e-05	
213	6.200000e-01	4.645813e-05	
214	6.300000e-01	4.950520e-05	
215	6.400000e-01	5.255879e-05	
216	6.500000e-01	5.561198e-05	
217	6.600000e-01	5.865883e-05	
218	6.700000e-01	6.169429e-05	
219	6.800000e-01	6.471412e-05	
220	6.900000e-01	6.771476e-05	
221	7.000000e-01	7.069327e-05	
222	7.100000e-01	7.364724e-05	
223	7.200000e-01	7.657472e-05	
224	7.300000e-01	7.947415e-05	
225	7.400000e-01	8.234429e-05	
226	7.500000e-01	8.518420e-05	
227	7.600000e-01	8.799317e-05	
228	7.700000e-01	9.077067e-05	

Index   v-sweep         vs#branch       
--------------------------------------------------------------------------------
229	7.800000e-01	9.351637e-05	
230	7.900000e-01	9.623006e-05	
231	8.000000e-01	9.891163e-05	
232	8.100000e-01	1.015611e-04	
233	8.200000e-01	1.041785e-04	
234	8.300000e-01	1.067641e-04	
235	8.400000e-01	1.093179e-04	
236	8.500000e-01	1.118403e-04	
237	8.600000e-01	1.143316e-04	
238	8.700000e-01	1.167919e-04	
239	8.800000e-01	1.192217e-04	
240	8.900000e-01	1.216213e-04	
241	9.000000e-01	1.239910e-04	
242	9.100000e-01	1.263312e-04	
243	9.200000e-01	1.286423e-04	
244	9.300000e-01	1.309246e-04	
245	9.400000e-01	1.331786e-04	
246	9.500000e-01	1.354046e-04	
247	9.600000e-01	1.376029e-04	
248	9.700000e-01	1.397740e-04	
249	9.800000e-01	1.419182e-04	
250	9.900000e-01	1.440360e-04	
251	1.000000e+00	1.461276e-04	
252	1.010000e+00	1.481934e-04	
253	1.020000e+00	1.502339e-04	
254	1.030000e+00	1.522493e-04	
255	1.040000e+00	1.542401e-04	
256	1.050000e+00	1.562065e-04	
257	1.060000e+00	1.581489e-04	
258	1.070000e+00	1.600677e-04	
259	1.080000e+00	1.619632e-04	
260	1.090000e+00	1.638356e-04	
261	1.100000e+00	1.656854e-04	
262	1.110000e+00	1.675129e-04	
263	1.120000e+00	1.693184e-04	
264	1.130000e+00	1.711021e-04	
265	1.140000e+00	1.728644e-04	
266	1.150000e+00	1.746057e-04	
267	1.160000e+00	1.763261e-04	
268	1.170000e+00	1.780259e-04	
269	1.180000e+00	1.797056e-04	
270	1.190000e+00	1.813652e-04	
271	1.200000e+00	1.830052e-04	
272	1.210000e+00	1.846258e-04	
273	1.220000e+00	1.862272e-04	
274	1.230000e+00	1.878098e-04	
275	1.240000e+00	1.893737e-04	
276	1.250000e+00	1.909193e-04	
277	1.260000e+00	1.924467e-04	
278	1.270000e+00	1.939563e-04	
279	1.280000e+00	1.954483e-04	
280	1.290000e+00	1.969228e-04	
281	1.300000e+00	1.983802e-04	
282	1.310000e+00	1.998207e-04	
283	1.320000e+00	2.012444e-04	
284	1.330000e+00	2.026517e-04	
285	1.340000e+00	2.040428e-04	
286	1.350000e+00	2.054178e-04	

Index   v-sweep         vs#branch       
--------------------------------------------------------------------------------
287	1.360000e+00	2.067769e-04	
288	1.370000e+00	2.081205e-04	
289	1.380000e+00	2.094486e-04	
290	1.390000e+00	2.107615e-04	
291	1.400000e+00	2.120594e-04	
292	1.410000e+00	2.133425e-04	
293	1.420000e+00	2.146109e-04	
294	1.430000e+00	2.158649e-04	
295	1.440000e+00	2.171047e-04	
296	1.450000e+00	2.183304e-04	
297	1.460000e+00	2.195422e-04	
298	1.470000e+00	2.207403e-04	
299	1.480000e+00	2.219248e-04	
300	1.490000e+00	2.230960e-04	
301	1.500000e+00	2.242540e-04	
302	0.000000e+00	4.147012e-12	
303	1.000000e-02	5.647254e-12	
304	2.000000e-02	8.546781e-12	
305	3.000000e-02	1.226614e-11	
306	4.000000e-02	1.760020e-11	
307	5.000000e-02	2.524766e-11	
308	6.000000e-02	3.620823e-11	
309	7.000000e-02	5.191133e-11	
310	8.000000e-02	7.439939e-11	
311	9.000000e-02	1.065883e-10	
312	1.000000e-01	1.526370e-10	
313	1.100000e-01	2.184707e-10	
314	1.200000e-01	3.125197e-10	
315	1.300000e-01	4.467605e-10	
316	1.400000e-01	6.381768e-10	
317	1.500000e-01	9.108019e-10	
318	1.600000e-01	1.298541e-09	
319	1.700000e-01	1.848956e-09	
320	1.800000e-01	2.628745e-09	
321	1.900000e-01	3.731015e-09	
322	2.000000e-01	5.285115e-09	
323	2.100000e-01	7.469787e-09	
324	2.200000e-01	1.053054e-08	
325	2.300000e-01	1.480225e-08	
326	2.400000e-01	2.073822e-08	
327	2.500000e-01	2.894674e-08	
328	2.600000e-01	4.023636e-08	
329	2.700000e-01	5.567092e-08	
330	2.800000e-01	7.663492e-08	
331	2.900000e-01	1.049099e-07	
332	3.000000e-01	1.427622e-07	
333	3.100000e-01	1.930427e-07	
334	3.200000e-01	2.592996e-07	
335	3.300000e-01	3.459061e-07	
336	3.400000e-01	4.582048e-07	
337	3.500000e-01	6.026698e-07	
338	3.600000e-01	7.870858e-07	
339	3.700000e-01	1.020733e-06	
340	3.800000e-01	1.314555e-06	
341	3.900000e-01	1.681279e-06	
342	4.000000e-01	2.135409e-06	
343	4.100000e-01	2.693036e-06	
344	4.200000e-01	3.371321e-06	

Index   v-sweep         vs#branch       
--------------------------------------------------------------------------------
345	4.300000e-01	4.187509e-06	
346	4.400000e-01	5.157110e-06	
347	4.500000e-01	6.290461e-06	
348	4.600000e-01	7.587255e-06	
349	4.700000e-01	9.037608e-06	
350	4.800000e-01	1.063946e-05	
351	4.900000e-01	1.239978e-05	
352	5.000000e-01	1.432176e-05	
353	5.100000e-01	1.640249e-05	
354	5.200000e-01	1.863455e-05	
355	5.300000e-01	2.100746e-05	
356	5.400000e-01	2.350864e-05	
357	5.500000e-01	2.612423e-05	
358	5.600000e-01	2.883973e-05	
359	5.700000e-01	3.164062e-05	
360	5.800000e-01	3.451272e-05	
361	5.900000e-01	3.744260e-05	
362	6.000000e-01	4.041775e-05	
363	6.100000e-01	4.342676e-05	
364	6.200000e-01	4.645936e-05	
365	6.300000e-01	4.950645e-05	
366	6.400000e-01	5.256005e-05	
367	6.500000e-01	5.561325e-05	
368	6.600000e-01	5.866010e-05	
369	6.700000e-01	6.169557e-05	
370	6.800000e-01	6.471540e-05	
371	6.900000e-01	6.771604e-05	
372	7.000000e-01	7.069455e-05	
373	7.100000e-01	7.364852e-05	
374	7.200000e-01	7.657599e-05	
375	7.300000e-01	7.947542e-05	
376	7.400000e-01	8.234555e-05	
377	7.500000e-01	8.518546e-05	
378	7.600000e-01	8.799442e-05	
379	7.700000e-01	9.077192e-05	
380	7.800000e-01	9.351761e-05	
381	7.900000e-01	9.623129e-05	
382	8.000000e-01	9.891285e-05	
383	8.100000e-01	1.015623e-04	
384	8.200000e-01	1.041797e-04	
385	8.300000e-01	1.067653e-04	
386	8.400000e-01	1.093191e-04	
387	8.500000e-01	1.118415e-04	
388	8.600000e-01	1.143327e-04	
389	8.700000e-01	1.167931e-04	
390	8.800000e-01	1.192229e-04	
391	8.900000e-01	1.216224e-04	
392	9.000000e-01	1.239921e-04	
393	9.100000e-01	1.263323e-04	
394	9.200000e-01	1.286434e-04	
395	9.300000e-01	1.309258e-04	
396	9.400000e-01	1.331797e-04	
397	9.500000e-01	1.354056e-04	
398	9.600000e-01	1.376040e-04	
399	9.700000e-01	1.397751e-04	
400	9.800000e-01	1.419193e-04	
401	9.900000e-01	1.440370e-04	
402	1.000000e+00	1.461286e-04	

Index   v-sweep         vs#branch       
--------------------------------------------------------------------------------
403	1.010000e+00	1.481945e-04	
404	1.020000e+00	1.502349e-04	
405	1.030000e+00	1.522503e-04	
406	1.040000e+00	1.542411e-04	
407	1.050000e+00	1.562075e-04	
408	1.060000e+00	1.581499e-04	
409	1.070000e+00	1.600687e-04	
410	1.080000e+00	1.619641e-04	
411	1.090000e+00	1.638366e-04	
412	1.100000e+00	1.656864e-04	
413	1.110000e+00	1.675139e-04	
414	1.120000e+00	1.693193e-04	
415	1.130000e+00	1.711030e-04	
416	1.140000e+00	1.728654e-04	
417	1.150000e+00	1.746066e-04	
418	1.160000e+00	1.763270e-04	
419	1.170000e+00	1.780268e-04	
420	1.180000e+00	1.797065e-04	
421	1.190000e+00	1.813661e-04	
422	1.200000e+00	1.830061e-04	
423	1.210000e+00	1.846267e-04	
424	1.220000e+00	1.862281e-04	
425	1.230000e+00	1.878107e-04	
426	1.240000e+00	1.893746e-04	
427	1.250000e+00	1.909201e-04	
428	1.260000e+00	1.924476e-04	
429	1.270000e+00	1.939571e-04	
430	1.280000e+00	1.954491e-04	
431	1.290000e+00	1.969236e-04	
432	1.300000e+00	1.983810e-04	
433	1.310000e+00	1.998215e-04	
434	1.320000e+00	2.012452e-04	
435	1.330000e+00	2.026525e-04	
436	1.340000e+00	2.040436e-04	
437	1.350000e+00	2.054185e-04	
438	1.360000e+00	2.067777e-04	
439	1.370000e+00	2.081212e-04	
440	1.380000e+00	2.094493e-04	
441	1.390000e+00	2.107622e-04	
442	1.400000e+00	2.120601e-04	
443	1.410000e+00	2.133432e-04	
444	1.420000e+00	2.146116e-04	
445	1.430000e+00	2.158656e-04	
446	1.440000e+00	2.171054e-04	
447	1.450000e+00	2.183311e-04	
448	1.460000e+00	2.195429e-04	
449	1.470000e+00	2.207410e-04	
450	1.480000e+00	2.219255e-04	
451	1.490000e+00	2.230967e-04	
452	1.500000e+00	2.242547e-04	
453	0.000000e+00	4.148791e-12	
454	1.000000e-02	5.649556e-12	
455	2.000000e-02	8.549996e-12	
456	3.000000e-02	1.227048e-11	
457	4.000000e-02	1.760605e-11	
458	5.000000e-02	2.525557e-11	
459	6.000000e-02	3.621893e-11	
460	7.000000e-02	5.192582e-11	

Index   v-sweep         vs#branch       
--------------------------------------------------------------------------------
461	8.000000e-02	7.441903e-11	
462	9.000000e-02	1.066149e-10	
463	1.000000e-01	1.526731e-10	
464	1.100000e-01	2.185196e-10	
465	1.200000e-01	3.125860e-10	
466	1.300000e-01	4.468504e-10	
467	1.400000e-01	6.382984e-10	
468	1.500000e-01	9.109662e-10	
469	1.600000e-01	1.298763e-09	
470	1.700000e-01	1.849255e-09	
471	1.800000e-01	2.629145e-09	
472	1.900000e-01	3.731550e-09	
473	2.000000e-01	5.285828e-09	
474	2.100000e-01	7.470732e-09	
475	2.200000e-01	1.053178e-08	
476	2.300000e-01	1.480388e-08	
477	2.400000e-01	2.074034e-08	
478	2.500000e-01	2.894946e-08	
479	2.600000e-01	4.023983e-08	
480	2.700000e-01	5.567530e-08	
481	2.800000e-01	7.664038e-08	
482	2.900000e-01	1.049166e-07	
483	3.000000e-01	1.427704e-07	
484	3.100000e-01	1.930527e-07	
485	3.200000e-01	2.593118e-07	
486	3.300000e-01	3.459211e-07	
487	3.400000e-01	4.582232e-07	
488	3.500000e-01	6.026931e-07	
489	3.600000e-01	7.871160e-07	
490	3.700000e-01	1.020773e-06	
491	3.800000e-01	1.314610e-06	
492	3.900000e-01	1.681355e-06	
493	4.000000e-01	2.135515e-06	
494	4.100000e-01	2.693183e-06	
495	4.200000e-01	3.371522e-06	
496	4.300000e-01	4.187779e-06	
497	4.400000e-01	5.157463e-06	
498	4.500000e-01	6.290913e-06	
499	4.600000e-01	7.587820e-06	
500	4.700000e-01	9.038297e-06	
501	4.800000e-01	1.064028e-05	
502	4.900000e-01	1.240074e-05	
503	5.000000e-01	1.432286e-05	
504	5.100000e-01	1.640373e-05	
505	5.200000e-01	1.863593e-05	
506	5.300000e-01	2.100897e-05	
507	5.400000e-01	2.351027e-05	
508	5.500000e-01	2.612596e-05	
509	5.600000e-01	2.884157e-05	
510	5.700000e-01	3.164254e-05	
511	5.800000e-01	3.451473e-05	
512	5.900000e-01	3.744467e-05	
513	6.000000e-01	4.041988e-05	
514	6.100000e-01	4.342893e-05	
515	6.200000e-01	4.646157e-05	
516	6.300000e-01	4.950869e-05	
517	6.400000e-01	5.256231e-05	
518	6.500000e-01	5.561553e-05	

Index   v-sweep         vs#branch       
--------------------------------------------------------------------------------
519	6.600000e-01	5.866240e-05	
520	6.700000e-01	6.169787e-05	
521	6.800000e-01	6.471771e-05	
522	6.900000e-01	6.771835e-05	
523	7.000000e-01	7.069685e-05	
524	7.100000e-01	7.365082e-05	
525	7.200000e-01	7.657828e-05	
526	7.300000e-01	7.947770e-05	
527	7.400000e-01	8.234783e-05	
528	7.500000e-01	8.518772e-05	
529	7.600000e-01	8.799667e-05	
530	7.700000e-01	9.077415e-05	
531	7.800000e-01	9.351983e-05	
532	7.900000e-01	9.623349e-05	
533	8.000000e-01	9.891504e-05	
534	8.100000e-01	1.015645e-04	
535	8.200000e-01	1.041819e-04	
536	8.300000e-01	1.067674e-04	
537	8.400000e-01	1.093212e-04	
538	8.500000e-01	1.118436e-04	
539	8.600000e-01	1.143348e-04	
540	8.700000e-01	1.167951e-04	
541	8.800000e-01	1.192249e-04	
542	8.900000e-01	1.216245e-04	
543	9.000000e-01	1.239942e-04	
544	9.100000e-01	1.263344e-04	
545	9.200000e-01	1.286454e-04	
546	9.300000e-01	1.309277e-04	
547	9.400000e-01	1.331817e-04	
548	9.500000e-01	1.354076e-04	
549	9.600000e-01	1.376059e-04	
550	9.700000e-01	1.397770e-04	
551	9.800000e-01	1.419212e-04	
552	9.900000e-01	1.440389e-04	
553	1.000000e+00	1.461305e-04	
554	1.010000e+00	1.481963e-04	
555	1.020000e+00	1.502368e-04	
556	1.030000e+00	1.522522e-04	
557	1.040000e+00	1.542429e-04	
558	1.050000e+00	1.562093e-04	
559	1.060000e+00	1.581517e-04	
560	1.070000e+00	1.600704e-04	
561	1.080000e+00	1.619659e-04	
562	1.090000e+00	1.638383e-04	
563	1.100000e+00	1.656881e-04	
564	1.110000e+00	1.675156e-04	
565	1.120000e+00	1.693210e-04	
566	1.130000e+00	1.711047e-04	
567	1.140000e+00	1.728670e-04	
568	1.150000e+00	1.746082e-04	
569	1.160000e+00	1.763286e-04	
570	1.170000e+00	1.780284e-04	
571	1.180000e+00	1.797081e-04	
572	1.190000e+00	1.813677e-04	
573	1.200000e+00	1.830077e-04	
574	1.210000e+00	1.846282e-04	
575	1.220000e+00	1.862297e-04	
576	1.230000e+00	1.878122e-04	

Index   v-sweep         vs#branch       
--------------------------------------------------------------------------------
577	1.240000e+00	1.893761e-04	
578	1.250000e+00	1.909217e-04	
579	1.260000e+00	1.924491e-04	
580	1.270000e+00	1.939586e-04	
581	1.280000e+00	1.954506e-04	
582	1.290000e+00	1.969251e-04	
583	1.300000e+00	1.983825e-04	
584	1.310000e+00	1.998229e-04	
585	1.320000e+00	2.012467e-04	
586	1.330000e+00	2.026540e-04	
587	1.340000e+00	2.040450e-04	
588	1.350000e+00	2.054199e-04	
589	1.360000e+00	2.067791e-04	
590	1.370000e+00	2.081226e-04	
591	1.380000e+00	2.094507e-04	
592	1.390000e+00	2.107636e-04	
593	1.400000e+00	2.120615e-04	
594	1.410000e+00	2.133445e-04	
595	1.420000e+00	2.146130e-04	
596	1.430000e+00	2.158670e-04	
597	1.440000e+00	2.171067e-04	
598	1.450000e+00	2.183324e-04	
599	1.460000e+00	2.195442e-04	
600	1.470000e+00	2.207422e-04	
601	1.480000e+00	2.219268e-04	
602	1.490000e+00	2.230980e-04	
603	1.500000e+00	2.242560e-04	
604	0.000000e+00	4.342370e-12	
605	1.000000e-02	5.848072e-12	
606	2.000000e-02	8.761122e-12	
607	3.000000e-02	1.249202e-11	
608	4.000000e-02	1.783257e-11	
609	5.000000e-02	2.548303e-11	
610	6.000000e-02	3.645059e-11	
611	7.000000e-02	5.217063e-11	
612	8.000000e-02	7.468824e-11	
613	9.000000e-02	1.069212e-10	
614	1.000000e-01	1.530310e-10	
615	1.100000e-01	2.189467e-10	
616	1.200000e-01	3.131039e-10	
617	1.300000e-01	4.474865e-10	
618	1.400000e-01	6.390874e-10	
619	1.500000e-01	9.119524e-10	
620	1.600000e-01	1.300003e-09	
621	1.700000e-01	1.850819e-09	
622	1.800000e-01	2.631125e-09	
623	1.900000e-01	3.734059e-09	
624	2.000000e-01	5.289006e-09	
625	2.100000e-01	7.474753e-09	
626	2.200000e-01	1.053686e-08	
627	2.300000e-01	1.481026e-08	
628	2.400000e-01	2.074831e-08	
629	2.500000e-01	2.895936e-08	
630	2.600000e-01	4.025203e-08	
631	2.700000e-01	5.569021e-08	
632	2.800000e-01	7.665845e-08	
633	2.900000e-01	1.049383e-07	
634	3.000000e-01	1.427963e-07	

Index   v-sweep         vs#branch       
--------------------------------------------------------------------------------
635	3.100000e-01	1.930834e-07	
636	3.200000e-01	2.593481e-07	
637	3.300000e-01	3.459644e-07	
638	3.400000e-01	4.582756e-07	
639	3.500000e-01	6.027579e-07	
640	3.600000e-01	7.871986e-07	
641	3.700000e-01	1.020881e-06	
642	3.800000e-01	1.314755e-06	
643	3.900000e-01	1.681552e-06	
644	4.000000e-01	2.135786e-06	
645	4.100000e-01	2.693551e-06	
646	4.200000e-01	3.372018e-06	
647	4.300000e-01	4.188435e-06	
648	4.400000e-01	5.158314e-06	
649	4.500000e-01	6.291990e-06	
650	4.600000e-01	7.589152e-06	
651	4.700000e-01	9.039911e-06	
652	4.800000e-01	1.064220e-05	
653	4.900000e-01	1.240298e-05	
654	5.000000e-01	1.432543e-05	
655	5.100000e-01	1.640662e-05	
656	5.200000e-01	1.863913e-05	
657	5.300000e-01	2.101247e-05	
658	5.400000e-01	2.351405e-05	
659	5.500000e-01	2.613000e-05	
660	5.600000e-01	2.884584e-05	
661	5.700000e-01	3.164702e-05	
662	5.800000e-01	3.451938e-05	
663	5.900000e-01	3.744948e-05	
664	6.000000e-01	4.042482e-05	
665	6.100000e-01	4.343398e-05	
666	6.200000e-01	4.646670e-05	
667	6.300000e-01	4.951389e-05	
668	6.400000e-01	5.256757e-05	
669	6.500000e-01	5.562083e-05	
670	6.600000e-01	5.866772e-05	
671	6.700000e-01	6.170322e-05	
672	6.800000e-01	6.472306e-05	
673	6.900000e-01	6.772370e-05	
674	7.000000e-01	7.070220e-05	
675	7.100000e-01	7.365615e-05	
676	7.200000e-01	7.658360e-05	
677	7.300000e-01	7.948300e-05	
678	7.400000e-01	8.235310e-05	
679	7.500000e-01	8.519297e-05	
680	7.600000e-01	8.800188e-05	
681	7.700000e-01	9.077934e-05	
682	7.800000e-01	9.352498e-05	
683	7.900000e-01	9.623861e-05	
684	8.000000e-01	9.892013e-05	
685	8.100000e-01	1.015695e-04	
686	8.200000e-01	1.041869e-04	
687	8.300000e-01	1.067724e-04	
688	8.400000e-01	1.093262e-04	
689	8.500000e-01	1.118485e-04	
690	8.600000e-01	1.143397e-04	
691	8.700000e-01	1.168000e-04	
692	8.800000e-01	1.192297e-04	

Index   v-sweep         vs#branch       
--------------------------------------------------------------------------------
693	8.900000e-01	1.216292e-04	
694	9.000000e-01	1.239989e-04	
695	9.100000e-01	1.263390e-04	
696	9.200000e-01	1.286500e-04	
697	9.300000e-01	1.309323e-04	
698	9.400000e-01	1.331862e-04	
699	9.500000e-01	1.354121e-04	
700	9.600000e-01	1.376104e-04	
701	9.700000e-01	1.397814e-04	
702	9.800000e-01	1.419256e-04	
703	9.900000e-01	1.440433e-04	
704	1.000000e+00	1.461348e-04	
705	1.010000e+00	1.482006e-04	
706	1.020000e+00	1.502410e-04	
707	1.030000e+00	1.522564e-04	
708	1.040000e+00	1.542471e-04	
709	1.050000e+00	1.562134e-04	
710	1.060000e+00	1.581558e-04	
711	1.070000e+00	1.600745e-04	
712	1.080000e+00	1.619699e-04	
713	1.090000e+00	1.638423e-04	
714	1.100000e+00	1.656921e-04	
715	1.110000e+00	1.675195e-04	
716	1.120000e+00	1.693249e-04	
717	1.130000e+00	1.711086e-04	
718	1.140000e+00	1.728709e-04	
719	1.150000e+00	1.746120e-04	
720	1.160000e+00	1.763324e-04	
721	1.170000e+00	1.780322e-04	
722	1.180000e+00	1.797118e-04	
723	1.190000e+00	1.813714e-04	
724	1.200000e+00	1.830114e-04	
725	1.210000e+00	1.846319e-04	
726	1.220000e+00	1.862333e-04	
727	1.230000e+00	1.878158e-04	
728	1.240000e+00	1.893797e-04	
729	1.250000e+00	1.909252e-04	
730	1.260000e+00	1.924526e-04	
731	1.270000e+00	1.939621e-04	
732	1.280000e+00	1.954540e-04	
733	1.290000e+00	1.969285e-04	
734	1.300000e+00	1.983859e-04	
735	1.310000e+00	1.998263e-04	
736	1.320000e+00	2.012500e-04	
737	1.330000e+00	2.026573e-04	
738	1.340000e+00	2.040482e-04	
739	1.350000e+00	2.054232e-04	
740	1.360000e+00	2.067823e-04	
741	1.370000e+00	2.081258e-04	
742	1.380000e+00	2.094539e-04	
743	1.390000e+00	2.107668e-04	
744	1.400000e+00	2.120646e-04	
745	1.410000e+00	2.133476e-04	
746	1.420000e+00	2.146160e-04	
747	1.430000e+00	2.158700e-04	
748	1.440000e+00	2.171097e-04	
749	1.450000e+00	2.183354e-04	
750	1.460000e+00	2.195472e-04	

Index   v-sweep         vs#branch       
--------------------------------------------------------------------------------
751	1.470000e+00	2.207452e-04	
752	1.480000e+00	2.219297e-04	
753	1.490000e+00	2.231009e-04	
754	1.500000e+00	2.242589e-04	
755	0.000000e+00	1.035825e-11	
756	1.000000e-02	1.374050e-11	
757	2.000000e-02	1.989926e-11	
758	3.000000e-02	2.757713e-11	
759	4.000000e-02	3.821258e-11	
760	5.000000e-02	5.294171e-11	
761	6.000000e-02	7.333502e-11	
762	7.000000e-02	1.015622e-10	
763	8.000000e-02	1.406188e-10	
764	9.000000e-02	1.946371e-10	
765	1.000000e-01	2.693124e-10	
766	1.100000e-01	3.724855e-10	
767	1.200000e-01	5.149374e-10	
768	1.300000e-01	7.114699e-10	
769	1.400000e-01	9.823713e-10	
770	1.500000e-01	1.355395e-09	
771	1.600000e-01	1.868398e-09	
772	1.700000e-01	2.572718e-09	
773	1.800000e-01	3.538056e-09	
774	1.900000e-01	4.858667e-09	
775	2.000000e-01	6.661560e-09	
776	2.100000e-01	9.117327e-09	
777	2.200000e-01	1.245447e-08	
778	2.300000e-01	1.697864e-08	
779	2.400000e-01	2.309950e-08	
780	2.500000e-01	3.137067e-08	
781	2.600000e-01	4.255412e-08	
782	2.700000e-01	5.772124e-08	
783	2.800000e-01	7.835827e-08	
784	2.900000e-01	1.063745e-07	
785	3.000000e-01	1.440740e-07	
786	3.100000e-01	1.942644e-07	
787	3.200000e-01	2.604440e-07	
788	3.300000e-01	3.469806e-07	
789	3.400000e-01	4.592439e-07	
790	3.500000e-01	6.037297e-07	
791	3.600000e-01	7.882339e-07	
792	3.700000e-01	1.022048e-06	
793	3.800000e-01	1.316131e-06	
794	3.900000e-01	1.683226e-06	
795	4.000000e-01	2.137861e-06	
796	4.100000e-01	2.696140e-06	
797	4.200000e-01	3.375239e-06	
798	4.300000e-01	4.192406e-06	
799	4.400000e-01	5.163146e-06	
800	4.500000e-01	6.297792e-06	
801	4.600000e-01	7.596049e-06	
802	4.700000e-01	9.048061e-06	
803	4.800000e-01	1.065176e-05	
804	4.900000e-01	1.241405e-05	
805	5.000000e-01	1.433806e-05	
806	5.100000e-01	1.642081e-05	
807	5.200000e-01	1.865485e-05	
808	5.300000e-01	2.102965e-05	

Index   v-sweep         vs#branch       
--------------------------------------------------------------------------------
809	5.400000e-01	2.353259e-05	
810	5.500000e-01	2.614978e-05	
811	5.600000e-01	2.886674e-05	
812	5.700000e-01	3.166891e-05	
813	5.800000e-01	3.454213e-05	
814	5.900000e-01	3.747297e-05	
815	6.000000e-01	4.044894e-05	
816	6.100000e-01	4.345862e-05	
817	6.200000e-01	4.649177e-05	
818	6.300000e-01	4.953930e-05	
819	6.400000e-01	5.259324e-05	
820	6.500000e-01	5.564669e-05	
821	6.600000e-01	5.869372e-05	
822	6.700000e-01	6.172929e-05	
823	6.800000e-01	6.474917e-05	
824	6.900000e-01	6.774981e-05	
825	7.000000e-01	7.072828e-05	
826	7.100000e-01	7.368217e-05	
827	7.200000e-01	7.660954e-05	
828	7.300000e-01	7.950884e-05	
829	7.400000e-01	8.237882e-05	
830	7.500000e-01	8.521855e-05	
831	7.600000e-01	8.802733e-05	
832	7.700000e-01	9.080463e-05	
833	7.800000e-01	9.355011e-05	
834	7.900000e-01	9.626357e-05	
835	8.000000e-01	9.894491e-05	
836	8.100000e-01	1.015941e-04	
837	8.200000e-01	1.042113e-04	
838	8.300000e-01	1.067966e-04	
839	8.400000e-01	1.093502e-04	
840	8.500000e-01	1.118724e-04	
841	8.600000e-01	1.143634e-04	
842	8.700000e-01	1.168235e-04	
843	8.800000e-01	1.192530e-04	
844	8.900000e-01	1.216523e-04	
845	9.000000e-01	1.240218e-04	
846	9.100000e-01	1.263618e-04	
847	9.200000e-01	1.286726e-04	
848	9.300000e-01	1.309547e-04	
849	9.400000e-01	1.332084e-04	
850	9.500000e-01	1.354341e-04	
851	9.600000e-01	1.376322e-04	
852	9.700000e-01	1.398031e-04	
853	9.800000e-01	1.419470e-04	
854	9.900000e-01	1.440645e-04	
855	1.000000e+00	1.461559e-04	
856	1.010000e+00	1.482215e-04	
857	1.020000e+00	1.502618e-04	
858	1.030000e+00	1.522770e-04	
859	1.040000e+00	1.542675e-04	
860	1.050000e+00	1.562337e-04	
861	1.060000e+00	1.581759e-04	
862	1.070000e+00	1.600944e-04	
863	1.080000e+00	1.619896e-04	
864	1.090000e+00	1.638619e-04	
865	1.100000e+00	1.657115e-04	
866	1.110000e+00	1.675388e-04	

Index   v-sweep         vs#branch       
--------------------------------------------------------------------------------
867	1.120000e+00	1.693440e-04	
868	1.130000e+00	1.711275e-04	
869	1.140000e+00	1.728897e-04	
870	1.150000e+00	1.746307e-04	
871	1.160000e+00	1.763509e-04	
872	1.170000e+00	1.780505e-04	
873	1.180000e+00	1.797300e-04	
874	1.190000e+00	1.813894e-04	
875	1.200000e+00	1.830292e-04	
876	1.210000e+00	1.846496e-04	
877	1.220000e+00	1.862509e-04	
878	1.230000e+00	1.878332e-04	
879	1.240000e+00	1.893970e-04	
880	1.250000e+00	1.909423e-04	
881	1.260000e+00	1.924696e-04	
882	1.270000e+00	1.939790e-04	
883	1.280000e+00	1.954708e-04	
884	1.290000e+00	1.969451e-04	
885	1.300000e+00	1.984023e-04	
886	1.310000e+00	1.998426e-04	
887	1.320000e+00	2.012662e-04	
888	1.330000e+00	2.026734e-04	
889	1.340000e+00	2.040642e-04	
890	1.350000e+00	2.054390e-04	
891	1.360000e+00	2.067980e-04	
892	1.370000e+00	2.081414e-04	
893	1.380000e+00	2.094694e-04	
894	1.390000e+00	2.107821e-04	
895	1.400000e+00	2.120798e-04	
896	1.410000e+00	2.133628e-04	
897	1.420000e+00	2.146310e-04	
898	1.430000e+00	2.158849e-04	
899	1.440000e+00	2.171245e-04	
900	1.450000e+00	2.183500e-04	
901	1.460000e+00	2.195617e-04	
902	1.470000e+00	2.207596e-04	
903	1.480000e+00	2.219441e-04	
904	1.490000e+00	2.231151e-04	
905	1.500000e+00	2.242730e-04	
906	0.000000e+00	2.888814e-11	
907	1.000000e-02	3.985200e-11	
908	2.000000e-02	5.497377e-11	
909	3.000000e-02	7.582477e-11	
910	4.000000e-02	1.045667e-10	
911	5.000000e-02	1.441716e-10	
912	6.000000e-02	1.987217e-10	
913	7.000000e-02	2.738195e-10	
914	8.000000e-02	3.771447e-10	
915	9.000000e-02	5.192109e-10	
916	1.000000e-01	7.143893e-10	
917	1.100000e-01	9.822894e-10	
918	1.200000e-01	1.349613e-09	
919	1.300000e-01	1.852634e-09	
920	1.400000e-01	2.540492e-09	
921	1.500000e-01	3.479546e-09	
922	1.600000e-01	4.759021e-09	
923	1.700000e-01	6.497972e-09	
924	1.800000e-01	8.855179e-09	

Index   v-sweep         vs#branch       
--------------------------------------------------------------------------------
925	1.900000e-01	1.204107e-08	
926	2.000000e-01	1.633276e-08	
927	2.100000e-01	2.209272e-08	
928	2.200000e-01	2.979157e-08	
929	2.300000e-01	4.003547e-08	
930	2.400000e-01	5.359841e-08	
931	2.500000e-01	7.145981e-08	
932	2.600000e-01	9.484748e-08	
933	2.700000e-01	1.252861e-07	
934	2.800000e-01	1.646516e-07	
935	2.900000e-01	2.152318e-07	
936	3.000000e-01	2.797944e-07	
937	3.100000e-01	3.616633e-07	
938	3.200000e-01	4.648060e-07	
939	3.300000e-01	5.939315e-07	
940	3.400000e-01	7.546012e-07	
941	3.500000e-01	9.533483e-07	
942	3.600000e-01	1.197800e-06	
943	3.700000e-01	1.496793e-06	
944	3.800000e-01	1.860454e-06	
945	3.900000e-01	2.300243e-06	
946	4.000000e-01	2.828906e-06	
947	4.100000e-01	3.460354e-06	
948	4.200000e-01	4.209458e-06	
949	4.300000e-01	5.091849e-06	
950	4.400000e-01	6.123857e-06	
951	4.500000e-01	7.322601e-06	
952	4.600000e-01	8.704781e-06	
953	4.700000e-01	1.028153e-05	
954	4.800000e-01	1.205570e-05	
955	4.900000e-01	1.402401e-05	
956	5.000000e-01	1.617661e-05	
957	5.100000e-01	1.849841e-05	
958	5.200000e-01	2.097175e-05	
959	5.300000e-01	2.357818e-05	
960	5.400000e-01	2.629938e-05	
961	5.500000e-01	2.911767e-05	
962	5.600000e-01	3.201639e-05	
963	5.700000e-01	3.498009e-05	
964	5.800000e-01	3.799462e-05	
965	5.900000e-01	4.104726e-05	
966	6.000000e-01	4.412668e-05	
967	6.100000e-01	4.722288e-05	
968	6.200000e-01	5.032719e-05	
969	6.300000e-01	5.343210e-05	
970	6.400000e-01	5.653120e-05	
971	6.500000e-01	5.961905e-05	
972	6.600000e-01	6.269109e-05	
973	6.700000e-01	6.574352e-05	
974	6.800000e-01	6.877321e-05	
975	6.900000e-01	7.177759e-05	
976	7.000000e-01	7.475460e-05	
977	7.100000e-01	7.770259e-05	
978	7.200000e-01	8.062027e-05	
979	7.300000e-01	8.350665e-05	
980	7.400000e-01	8.636099e-05	
981	7.500000e-01	8.918278e-05	
982	7.600000e-01	9.197165e-05	

Index   v-sweep         vs#branch       
--------------------------------------------------------------------------------
983	7.700000e-01	9.472742e-05	
984	7.800000e-01	9.744999e-05	
985	7.900000e-01	1.001394e-04	
986	8.000000e-01	1.027957e-04	
987	8.100000e-01	1.054192e-04	
988	8.200000e-01	1.080100e-04	
989	8.300000e-01	1.105683e-04	
990	8.400000e-01	1.130946e-04	
991	8.500000e-01	1.155891e-04	
992	8.600000e-01	1.180521e-04	
993	8.700000e-01	1.204841e-04	
994	8.800000e-01	1.228855e-04	
995	8.900000e-01	1.252565e-04	
996	9.000000e-01	1.275977e-04	
997	9.100000e-01	1.299094e-04	
998	9.200000e-01	1.321920e-04	
999	9.300000e-01	1.344459e-04	
1000	9.400000e-01	1.366716e-04	
1001	9.500000e-01	1.388693e-04	
1002	9.600000e-01	1.410396e-04	
1003	9.700000e-01	1.431828e-04	
1004	9.800000e-01	1.452992e-04	
1005	9.900000e-01	1.473894e-04	
1006	1.000000e+00	1.494536e-04	
1007	1.010000e+00	1.514923e-04	
1008	1.020000e+00	1.535058e-04	
1009	1.030000e+00	1.554944e-04	
1010	1.040000e+00	1.574586e-04	
1011	1.050000e+00	1.593986e-04	
1012	1.060000e+00	1.613149e-04	
1013	1.070000e+00	1.632078e-04	
1014	1.080000e+00	1.650776e-04	
1015	1.090000e+00	1.669246e-04	
1016	1.100000e+00	1.687492e-04	
1017	1.110000e+00	1.705517e-04	
1018	1.120000e+00	1.723324e-04	
1019	1.130000e+00	1.740917e-04	
1020	1.140000e+00	1.758297e-04	
1021	1.150000e+00	1.775469e-04	
1022	1.160000e+00	1.792434e-04	
1023	1.170000e+00	1.809197e-04	
1024	1.180000e+00	1.825760e-04	
1025	1.190000e+00	1.842126e-04	
1026	1.200000e+00	1.858297e-04	
1027	1.210000e+00	1.874276e-04	
1028	1.220000e+00	1.890066e-04	
1029	1.230000e+00	1.905669e-04	
1030	1.240000e+00	1.921089e-04	
1031	1.250000e+00	1.936327e-04	
1032	1.260000e+00	1.951385e-04	
1033	1.270000e+00	1.966268e-04	
1034	1.280000e+00	1.980976e-04	
1035	1.290000e+00	1.995513e-04	
1036	1.300000e+00	2.009880e-04	
1037	1.310000e+00	2.024080e-04	
1038	1.320000e+00	2.038115e-04	
1039	1.330000e+00	2.051987e-04	
1040	1.340000e+00	2.065699e-04	

Index   v-sweep         vs#branch       
--------------------------------------------------------------------------------
1041	1.350000e+00	2.079252e-04	
1042	1.360000e+00	2.092649e-04	
1043	1.370000e+00	2.105892e-04	
1044	1.380000e+00	2.118983e-04	
1045	1.390000e+00	2.131923e-04	
1046	1.400000e+00	2.144715e-04	
1047	1.410000e+00	2.157361e-04	
1048	1.420000e+00	2.169863e-04	
1049	1.430000e+00	2.182221e-04	
1050	1.440000e+00	2.194440e-04	
1051	1.450000e+00	2.206519e-04	
1052	1.460000e+00	2.218462e-04	
1053	1.470000e+00	2.230269e-04	
1054	1.480000e+00	2.241942e-04	
1055	1.490000e+00	2.253484e-04	
1056	1.500000e+00	2.264895e-04	
1057	0.000000e+00	9.353506e-11	
1058	1.000000e-02	1.279145e-10	
1059	2.000000e-02	1.750465e-10	
1060	3.000000e-02	2.396334e-10	
1061	4.000000e-02	3.280945e-10	
1062	5.000000e-02	4.491831e-10	
1063	6.000000e-02	6.148191e-10	
1064	7.000000e-02	8.412100e-10	
1065	8.000000e-02	1.150353e-09	
1066	9.000000e-02	1.572042e-09	
1067	1.000000e-01	2.146534e-09	
1068	1.100000e-01	2.928076e-09	
1069	1.200000e-01	3.989531e-09	
1070	1.300000e-01	5.428422e-09	
1071	1.400000e-01	7.374732e-09	
1072	1.500000e-01	1.000091e-08	
1073	1.600000e-01	1.353437e-08	
1074	1.700000e-01	1.827214e-08	
1075	1.800000e-01	2.460148e-08	
1076	1.900000e-01	3.302316e-08	
1077	2.000000e-01	4.417953e-08	
1078	2.100000e-01	5.888767e-08	
1079	2.200000e-01	7.817794e-08	
1080	2.300000e-01	1.033380e-07	
1081	2.400000e-01	1.359629e-07	
1082	2.500000e-01	1.780104e-07	
1083	2.600000e-01	2.318645e-07	
1084	2.700000e-01	3.004048e-07	
1085	2.800000e-01	3.870860e-07	
1086	2.900000e-01	4.960270e-07	
1087	3.000000e-01	6.321102e-07	
1088	3.100000e-01	8.010920e-07	
1089	3.200000e-01	1.009717e-06	
1090	3.300000e-01	1.265831e-06	
1091	3.400000e-01	1.578474e-06	
1092	3.500000e-01	1.957932e-06	
1093	3.600000e-01	2.415719e-06	
1094	3.700000e-01	2.964459e-06	
1095	3.800000e-01	3.617623e-06	
1096	3.900000e-01	4.389115e-06	
1097	4.000000e-01	5.292685e-06	
1098	4.100000e-01	6.341219e-06	

Index   v-sweep         vs#branch       
--------------------------------------------------------------------------------
1099	4.200000e-01	7.545935e-06	
1100	4.300000e-01	8.915619e-06	
1101	4.400000e-01	1.045596e-05	
1102	4.500000e-01	1.216909e-05	
1103	4.600000e-01	1.405338e-05	
1104	4.700000e-01	1.610353e-05	
1105	4.800000e-01	1.831121e-05	
1106	4.900000e-01	2.066572e-05	
1107	5.000000e-01	2.315455e-05	
1108	5.100000e-01	2.576403e-05	
1109	5.200000e-01	2.847997e-05	
1110	5.300000e-01	3.128834e-05	
1111	5.400000e-01	3.417569e-05	
1112	5.500000e-01	3.712954e-05	
1113	5.600000e-01	4.013867e-05	
1114	5.700000e-01	4.319316e-05	
1115	5.800000e-01	4.628432e-05	
1116	5.900000e-01	4.940421e-05	
1117	6.000000e-01	5.254512e-05	
1118	6.100000e-01	5.569889e-05	
1119	6.200000e-01	5.885691e-05	
1120	6.300000e-01	6.201051e-05	
1121	6.400000e-01	6.515170e-05	
1122	6.500000e-01	6.827378e-05	
1123	6.600000e-01	7.137140e-05	
1124	6.700000e-01	7.444056e-05	
1125	6.800000e-01	7.747833e-05	
1126	6.900000e-01	8.048263e-05	
1127	7.000000e-01	8.345202e-05	
1128	7.100000e-01	8.638557e-05	
1129	7.200000e-01	8.928269e-05	
1130	7.300000e-01	9.214309e-05	
1131	7.400000e-01	9.496667e-05	
1132	7.500000e-01	9.775351e-05	
1133	7.600000e-01	1.005038e-04	
1134	7.700000e-01	1.032178e-04	
1135	7.800000e-01	1.058959e-04	
1136	7.900000e-01	1.085384e-04	
1137	8.000000e-01	1.111459e-04	
1138	8.100000e-01	1.137187e-04	
1139	8.200000e-01	1.162574e-04	
1140	8.300000e-01	1.187625e-04	
1141	8.400000e-01	1.212344e-04	
1142	8.500000e-01	1.236737e-04	
1143	8.600000e-01	1.260808e-04	
1144	8.700000e-01	1.284563e-04	
1145	8.800000e-01	1.308007e-04	
1146	8.900000e-01	1.331145e-04	
1147	9.000000e-01	1.353982e-04	
1148	9.100000e-01	1.376522e-04	
1149	9.200000e-01	1.398770e-04	
1150	9.300000e-01	1.420731e-04	
1151	9.400000e-01	1.442410e-04	
1152	9.500000e-01	1.463811e-04	
1153	9.600000e-01	1.484939e-04	
1154	9.700000e-01	1.505797e-04	
1155	9.800000e-01	1.526390e-04	
1156	9.900000e-01	1.546723e-04	

Index   v-sweep         vs#branch       
--------------------------------------------------------------------------------
1157	1.000000e+00	1.566799e-04	
1158	1.010000e+00	1.586622e-04	
1159	1.020000e+00	1.606197e-04	
1160	1.030000e+00	1.625526e-04	
1161	1.040000e+00	1.644615e-04	
1162	1.050000e+00	1.663466e-04	
1163	1.060000e+00	1.682083e-04	
1164	1.070000e+00	1.700470e-04	
1165	1.080000e+00	1.718630e-04	
1166	1.090000e+00	1.736567e-04	
1167	1.100000e+00	1.754284e-04	
1168	1.110000e+00	1.771784e-04	
1169	1.120000e+00	1.789070e-04	
1170	1.130000e+00	1.806146e-04	
1171	1.140000e+00	1.823014e-04	
1172	1.150000e+00	1.839679e-04	
1173	1.160000e+00	1.856141e-04	
1174	1.170000e+00	1.872406e-04	
1175	1.180000e+00	1.888475e-04	
1176	1.190000e+00	1.904351e-04	
1177	1.200000e+00	1.920036e-04	
1178	1.210000e+00	1.935535e-04	
1179	1.220000e+00	1.950849e-04	
1180	1.230000e+00	1.965981e-04	
1181	1.240000e+00	1.980933e-04	
1182	1.250000e+00	1.995708e-04	
1183	1.260000e+00	2.010309e-04	
1184	1.270000e+00	2.024737e-04	
1185	1.280000e+00	2.038996e-04	
1186	1.290000e+00	2.053087e-04	
1187	1.300000e+00	2.067014e-04	
1188	1.310000e+00	2.080777e-04	
1189	1.320000e+00	2.094380e-04	
1190	1.330000e+00	2.107824e-04	
1191	1.340000e+00	2.121112e-04	
1192	1.350000e+00	2.134245e-04	
1193	1.360000e+00	2.147227e-04	
1194	1.370000e+00	2.160058e-04	
1195	1.380000e+00	2.172741e-04	
1196	1.390000e+00	2.185278e-04	
1197	1.400000e+00	2.197671e-04	
1198	1.410000e+00	2.209921e-04	
1199	1.420000e+00	2.222031e-04	
1200	1.430000e+00	2.234002e-04	
1201	1.440000e+00	2.245837e-04	
1202	1.450000e+00	2.257536e-04	
1203	1.460000e+00	2.269102e-04	
1204	1.470000e+00	2.280536e-04	
1205	1.480000e+00	2.291841e-04	
1206	1.490000e+00	2.303017e-04	
1207	1.500000e+00	2.314066e-04	
1208	0.000000e+00	3.853291e-10	
1209	1.000000e-02	5.115682e-10	
1210	2.000000e-02	6.831691e-10	
1211	3.000000e-02	9.162574e-10	
1212	4.000000e-02	1.232590e-09	
1213	5.000000e-02	1.661468e-09	
1214	6.000000e-02	2.242261e-09	

Index   v-sweep         vs#branch       
--------------------------------------------------------------------------------
1215	7.000000e-02	3.027733e-09	
1216	8.000000e-02	4.088398e-09	
1217	9.000000e-02	5.518170e-09	
1218	1.000000e-01	7.441664e-09	
1219	1.100000e-01	1.002352e-08	
1220	1.200000e-01	1.348020e-08	
1221	1.300000e-01	1.809483e-08	
1222	1.400000e-01	2.423546e-08	
1223	1.500000e-01	3.237750e-08	
1224	1.600000e-01	4.313011e-08	
1225	1.700000e-01	5.726476e-08	
1226	1.800000e-01	7.575602e-08	
1227	1.900000e-01	9.982342e-08	
1228	2.000000e-01	1.309796e-07	
1229	2.100000e-01	1.710852e-07	
1230	2.200000e-01	2.224108e-07	
1231	2.300000e-01	2.877061e-07	
1232	2.400000e-01	3.702785e-07	
1233	2.500000e-01	4.740812e-07	
1234	2.600000e-01	6.038112e-07	
1235	2.700000e-01	7.650179e-07	
1236	2.800000e-01	9.642163e-07	
1237	2.900000e-01	1.209000e-06	
1238	3.000000e-01	1.508136e-06	
1239	3.100000e-01	1.871627e-06	
1240	3.200000e-01	2.310709e-06	
1241	3.300000e-01	2.837751e-06	
1242	3.400000e-01	3.466032e-06	
1243	3.500000e-01	4.209363e-06	
1244	3.600000e-01	5.081545e-06	
1245	3.700000e-01	6.095690e-06	
1246	3.800000e-01	7.263442e-06	
1247	3.900000e-01	8.594197e-06	
1248	4.000000e-01	1.009442e-05	
1249	4.100000e-01	1.176714e-05	
1250	4.200000e-01	1.361174e-05	
1251	4.300000e-01	1.562402e-05	
1252	4.400000e-01	1.779649e-05	
1253	4.500000e-01	2.011889e-05	
1254	4.600000e-01	2.257882e-05	
1255	4.700000e-01	2.516240e-05	
1256	4.800000e-01	2.785503e-05	
1257	4.900000e-01	3.064202e-05	
1258	5.000000e-01	3.350892e-05	
1259	5.100000e-01	3.644193e-05	
1260	5.200000e-01	3.942812e-05	
1261	5.300000e-01	4.245561e-05	
1262	5.400000e-01	4.551368e-05	
1263	5.500000e-01	4.859278e-05	
1264	5.600000e-01	5.168450e-05	
1265	5.700000e-01	5.478156e-05	
1266	5.800000e-01	5.787771e-05	
1267	5.900000e-01	6.096765e-05	
1268	6.000000e-01	6.404693e-05	
1269	6.100000e-01	6.711192e-05	
1270	6.200000e-01	7.015963e-05	
1271	6.300000e-01	7.318773e-05	
1272	6.400000e-01	7.619438e-05	

Index   v-sweep         vs#branch       
--------------------------------------------------------------------------------
1273	6.500000e-01	7.917819e-05	
1274	6.600000e-01	8.213807e-05	
1275	6.700000e-01	8.507321e-05	
1276	6.800000e-01	8.798284e-05	
1277	6.900000e-01	9.086625e-05	
1278	7.000000e-01	9.372258e-05	
1279	7.100000e-01	9.655088e-05	
1280	7.200000e-01	9.935007e-05	
1281	7.300000e-01	1.021190e-04	
1282	7.400000e-01	1.048567e-04	
1283	7.500000e-01	1.075622e-04	
1284	7.600000e-01	1.102347e-04	
1285	7.700000e-01	1.128738e-04	
1286	7.800000e-01	1.154791e-04	
1287	7.900000e-01	1.180505e-04	
1288	8.000000e-01	1.205880e-04	
1289	8.100000e-01	1.230918e-04	
1290	8.200000e-01	1.255621e-04	
1291	8.300000e-01	1.279993e-04	
1292	8.400000e-01	1.304037e-04	
1293	8.500000e-01	1.327758e-04	
1294	8.600000e-01	1.351161e-04	
1295	8.700000e-01	1.374250e-04	
1296	8.800000e-01	1.397030e-04	
1297	8.900000e-01	1.419506e-04	
1298	9.000000e-01	1.441683e-04	
1299	9.100000e-01	1.463566e-04	
1300	9.200000e-01	1.485160e-04	
1301	9.300000e-01	1.506469e-04	
1302	9.400000e-01	1.527499e-04	
1303	9.500000e-01	1.548254e-04	
1304	9.600000e-01	1.568739e-04	
1305	9.700000e-01	1.588957e-04	
1306	9.800000e-01	1.608915e-04	
1307	9.900000e-01	1.628616e-04	
1308	1.000000e+00	1.648063e-04	
1309	1.010000e+00	1.667262e-04	
1310	1.020000e+00	1.686217e-04	
1311	1.030000e+00	1.704930e-04	
1312	1.040000e+00	1.723407e-04	
1313	1.050000e+00	1.741651e-04	
1314	1.060000e+00	1.759666e-04	
1315	1.070000e+00	1.777455e-04	
1316	1.080000e+00	1.795022e-04	
1317	1.090000e+00	1.812370e-04	
1318	1.100000e+00	1.829502e-04	
1319	1.110000e+00	1.846423e-04	
1320	1.120000e+00	1.863135e-04	
1321	1.130000e+00	1.879642e-04	
1322	1.140000e+00	1.895946e-04	
1323	1.150000e+00	1.912050e-04	
1324	1.160000e+00	1.927958e-04	
1325	1.170000e+00	1.943673e-04	
1326	1.180000e+00	1.959197e-04	
1327	1.190000e+00	1.974533e-04	
1328	1.200000e+00	1.989684e-04	
1329	1.210000e+00	2.004652e-04	
1330	1.220000e+00	2.019441e-04	

Index   v-sweep         vs#branch       
--------------------------------------------------------------------------------
1331	1.230000e+00	2.034053e-04	
1332	1.240000e+00	2.048490e-04	
1333	1.250000e+00	2.062755e-04	
1334	1.260000e+00	2.076850e-04	
1335	1.270000e+00	2.090777e-04	
1336	1.280000e+00	2.104540e-04	
1337	1.290000e+00	2.118140e-04	
1338	1.300000e+00	2.131580e-04	
1339	1.310000e+00	2.144861e-04	
1340	1.320000e+00	2.157987e-04	
1341	1.330000e+00	2.170958e-04	
1342	1.340000e+00	2.183778e-04	
1343	1.350000e+00	2.196448e-04	
1344	1.360000e+00	2.208971e-04	
1345	1.370000e+00	2.221348e-04	
1346	1.380000e+00	2.233581e-04	
1347	1.390000e+00	2.245672e-04	
1348	1.400000e+00	2.257624e-04	
1349	1.410000e+00	2.269437e-04	
1350	1.420000e+00	2.281115e-04	
1351	1.430000e+00	2.292657e-04	
1352	1.440000e+00	2.304068e-04	
1353	1.450000e+00	2.315347e-04	
1354	1.460000e+00	2.326497e-04	
1355	1.470000e+00	2.337520e-04	
1356	1.480000e+00	2.348416e-04	
1357	1.490000e+00	2.359189e-04	
1358	1.500000e+00	2.369838e-04	




