 Reference value :  1.03000e+00
No. of Data Rows : 1359

Circuit: *model = BSIMSOI (DD)

Doing analysis at TEMP = 300.150000 and TNOM = 300.150000
Warning: Pd = 0 is less than W.
Warning: Ps = 0 is less than W.
                             *model = BSIMSOI (DD)
--------------------------------------------------------------------------------
Index   v-sweep         vs#branch       
--------------------------------------------------------------------------------
0	0.000000e+00	4.146227e-12	
1	1.000000e-02	5.646207e-12	
2	2.000000e-02	8.105438e-12	
3	3.000000e-02	1.163351e-11	
4	4.000000e-02	1.669365e-11	
5	5.000000e-02	2.524361e-11	
6	6.000000e-02	3.620261e-11	
7	7.000000e-02	5.190353e-11	
8	8.000000e-02	7.438857e-11	
9	9.000000e-02	1.065733e-10	
10	1.000000e-01	1.526162e-10	
11	1.100000e-01	2.184419e-10	
12	1.200000e-01	3.124799e-10	
13	1.300000e-01	4.467056e-10	
14	1.400000e-01	6.381011e-10	
15	1.500000e-01	9.106977e-10	
16	1.600000e-01	1.298398e-09	
17	1.700000e-01	1.848760e-09	
18	1.800000e-01	2.628478e-09	
19	1.900000e-01	3.730652e-09	
20	2.000000e-01	5.284624e-09	
21	2.100000e-01	7.469127e-09	
22	2.200000e-01	1.052965e-08	
23	2.300000e-01	1.480108e-08	
24	2.400000e-01	2.073668e-08	
25	2.500000e-01	2.894472e-08	
26	2.600000e-01	4.023376e-08	
27	2.700000e-01	5.566760e-08	
28	2.800000e-01	7.663072e-08	
29	2.900000e-01	1.049046e-07	
30	3.000000e-01	1.427557e-07	
31	3.100000e-01	1.930347e-07	
32	3.200000e-01	2.592898e-07	
33	3.300000e-01	3.458940e-07	
34	3.400000e-01	4.581896e-07	
35	3.500000e-01	6.026505e-07	
36	3.600000e-01	7.870605e-07	
37	3.700000e-01	1.020699e-06	
38	3.800000e-01	1.314508e-06	
39	3.900000e-01	1.681213e-06	
40	4.000000e-01	2.135318e-06	
41	4.100000e-01	2.692908e-06	
42	4.200000e-01	3.371145e-06	
43	4.300000e-01	4.187271e-06	
44	4.400000e-01	5.156795e-06	
45	4.500000e-01	6.290054e-06	
46	4.600000e-01	7.586744e-06	
47	4.700000e-01	9.036984e-06	
48	4.800000e-01	1.063872e-05	
49	4.900000e-01	1.239891e-05	
50	5.000000e-01	1.432076e-05	
51	5.100000e-01	1.640136e-05	
52	5.200000e-01	1.863330e-05	
53	5.300000e-01	2.100609e-05	
54	5.400000e-01	2.350716e-05	

Index   v-sweep         vs#branch       
--------------------------------------------------------------------------------
55	5.500000e-01	2.612264e-05	
56	5.600000e-01	2.883806e-05	
57	5.700000e-01	3.163886e-05	
58	5.800000e-01	3.447759e-05	
59	5.900000e-01	3.741399e-05	
60	6.000000e-01	4.039517e-05	
61	6.100000e-01	4.340966e-05	
62	6.200000e-01	4.644716e-05	
63	6.300000e-01	4.949858e-05	
64	6.400000e-01	5.255597e-05	
65	6.500000e-01	5.561244e-05	
66	6.600000e-01	5.866209e-05	
67	6.700000e-01	6.169994e-05	
68	6.800000e-01	6.472177e-05	
69	6.900000e-01	6.772407e-05	
70	7.000000e-01	7.070396e-05	
71	7.100000e-01	7.365905e-05	
72	7.200000e-01	7.658744e-05	
73	7.300000e-01	7.948759e-05	
74	7.400000e-01	8.235831e-05	
75	7.500000e-01	8.519865e-05	
76	7.600000e-01	8.800794e-05	
77	7.700000e-01	9.078568e-05	
78	7.800000e-01	9.353154e-05	
79	7.900000e-01	9.624531e-05	
80	8.000000e-01	9.892692e-05	
81	8.100000e-01	1.015764e-04	
82	8.200000e-01	1.041938e-04	
83	8.300000e-01	1.067792e-04	
84	8.400000e-01	1.093330e-04	
85	8.500000e-01	1.118553e-04	
86	8.600000e-01	1.143464e-04	
87	8.700000e-01	1.168066e-04	
88	8.800000e-01	1.192362e-04	
89	8.900000e-01	1.216356e-04	
90	9.000000e-01	1.240052e-04	
91	9.100000e-01	1.263452e-04	
92	9.200000e-01	1.286561e-04	
93	9.300000e-01	1.309383e-04	
94	9.400000e-01	1.331920e-04	
95	9.500000e-01	1.354178e-04	
96	9.600000e-01	1.376160e-04	
97	9.700000e-01	1.397869e-04	
98	9.800000e-01	1.419309e-04	
99	9.900000e-01	1.440485e-04	
100	1.000000e+00	1.461399e-04	
101	1.010000e+00	1.482056e-04	
102	1.020000e+00	1.502459e-04	
103	1.030000e+00	1.522611e-04	
104	1.040000e+00	1.542517e-04	
105	1.050000e+00	1.562180e-04	
106	1.060000e+00	1.581602e-04	
107	1.070000e+00	1.600788e-04	
108	1.080000e+00	1.619741e-04	
109	1.090000e+00	1.638465e-04	
110	1.100000e+00	1.656961e-04	
111	1.110000e+00	1.675234e-04	
112	1.120000e+00	1.693287e-04	

Index   v-sweep         vs#branch       
--------------------------------------------------------------------------------
113	1.130000e+00	1.711123e-04	
114	1.140000e+00	1.728745e-04	
115	1.150000e+00	1.746156e-04	
116	1.160000e+00	1.763358e-04	
117	1.170000e+00	1.780356e-04	
118	1.180000e+00	1.797151e-04	
119	1.190000e+00	1.813746e-04	
120	1.200000e+00	1.830145e-04	
121	1.210000e+00	1.846349e-04	
122	1.220000e+00	1.862362e-04	
123	1.230000e+00	1.878186e-04	
124	1.240000e+00	1.893825e-04	
125	1.250000e+00	1.909279e-04	
126	1.260000e+00	1.924552e-04	
127	1.270000e+00	1.939647e-04	
128	1.280000e+00	1.954565e-04	
129	1.290000e+00	1.969309e-04	
130	1.300000e+00	1.983882e-04	
131	1.310000e+00	1.998286e-04	
132	1.320000e+00	2.012522e-04	
133	1.330000e+00	2.026594e-04	
134	1.340000e+00	2.040504e-04	
135	1.350000e+00	2.054252e-04	
136	1.360000e+00	2.067843e-04	
137	1.370000e+00	2.081277e-04	
138	1.380000e+00	2.094558e-04	
139	1.390000e+00	2.107686e-04	
140	1.400000e+00	2.120664e-04	
141	1.410000e+00	2.133494e-04	
142	1.420000e+00	2.146177e-04	
143	1.430000e+00	2.158716e-04	
144	1.440000e+00	2.171113e-04	
145	1.450000e+00	2.183369e-04	
146	1.460000e+00	2.195486e-04	
147	1.470000e+00	2.207466e-04	
148	1.480000e+00	2.219311e-04	
149	1.490000e+00	2.231022e-04	
150	1.500000e+00	2.242602e-04	
151	0.000000e+00	4.146482e-12	
152	1.000000e-02	5.646551e-12	
153	2.000000e-02	8.105918e-12	
154	3.000000e-02	1.163417e-11	
155	4.000000e-02	1.669458e-11	
156	5.000000e-02	2.524497e-11	
157	6.000000e-02	3.620450e-11	
158	7.000000e-02	5.190617e-11	
159	8.000000e-02	7.439226e-11	
160	9.000000e-02	1.065785e-10	
161	1.000000e-01	1.526234e-10	
162	1.100000e-01	2.184519e-10	
163	1.200000e-01	3.124937e-10	
164	1.300000e-01	4.467248e-10	
165	1.400000e-01	6.381277e-10	
166	1.500000e-01	9.107344e-10	
167	1.600000e-01	1.298449e-09	
168	1.700000e-01	1.848830e-09	
169	1.800000e-01	2.628573e-09	
170	1.900000e-01	3.730782e-09	

Index   v-sweep         vs#branch       
--------------------------------------------------------------------------------
171	2.000000e-01	5.284801e-09	
172	2.100000e-01	7.469365e-09	
173	2.200000e-01	1.052997e-08	
174	2.300000e-01	1.480151e-08	
175	2.400000e-01	2.073725e-08	
176	2.500000e-01	2.894546e-08	
177	2.600000e-01	4.023472e-08	
178	2.700000e-01	5.566883e-08	
179	2.800000e-01	7.663228e-08	
180	2.900000e-01	1.049066e-07	
181	3.000000e-01	1.427581e-07	
182	3.100000e-01	1.930377e-07	
183	3.200000e-01	2.592935e-07	
184	3.300000e-01	3.458986e-07	
185	3.400000e-01	4.581953e-07	
186	3.500000e-01	6.026578e-07	
187	3.600000e-01	7.870701e-07	
188	3.700000e-01	1.020712e-06	
189	3.800000e-01	1.314526e-06	
190	3.900000e-01	1.681238e-06	
191	4.000000e-01	2.135353e-06	
192	4.100000e-01	2.692957e-06	
193	4.200000e-01	3.371213e-06	
194	4.300000e-01	4.187363e-06	
195	4.400000e-01	5.156917e-06	
196	4.500000e-01	6.290212e-06	
197	4.600000e-01	7.586942e-06	
198	4.700000e-01	9.037226e-06	
199	4.800000e-01	1.063901e-05	
200	4.900000e-01	1.239925e-05	
201	5.000000e-01	1.432115e-05	
202	5.100000e-01	1.640180e-05	
203	5.200000e-01	1.863378e-05	
204	5.300000e-01	2.100662e-05	
205	5.400000e-01	2.350774e-05	
206	5.500000e-01	2.612326e-05	
207	5.600000e-01	2.883871e-05	
208	5.700000e-01	3.163955e-05	
209	5.800000e-01	3.447831e-05	
210	5.900000e-01	3.741473e-05	
211	6.000000e-01	4.039593e-05	
212	6.100000e-01	4.341043e-05	
213	6.200000e-01	4.644795e-05	
214	6.300000e-01	4.949938e-05	
215	6.400000e-01	5.255677e-05	
216	6.500000e-01	5.561325e-05	
217	6.600000e-01	5.866291e-05	
218	6.700000e-01	6.170076e-05	
219	6.800000e-01	6.472259e-05	
220	6.900000e-01	6.772489e-05	
221	7.000000e-01	7.070478e-05	
222	7.100000e-01	7.365987e-05	
223	7.200000e-01	7.658826e-05	
224	7.300000e-01	7.948840e-05	
225	7.400000e-01	8.235911e-05	
226	7.500000e-01	8.519946e-05	
227	7.600000e-01	8.800874e-05	
228	7.700000e-01	9.078648e-05	

Index   v-sweep         vs#branch       
--------------------------------------------------------------------------------
229	7.800000e-01	9.353232e-05	
230	7.900000e-01	9.624609e-05	
231	8.000000e-01	9.892769e-05	
232	8.100000e-01	1.015771e-04	
233	8.200000e-01	1.041945e-04	
234	8.300000e-01	1.067800e-04	
235	8.400000e-01	1.093337e-04	
236	8.500000e-01	1.118560e-04	
237	8.600000e-01	1.143471e-04	
238	8.700000e-01	1.168073e-04	
239	8.800000e-01	1.192369e-04	
240	8.900000e-01	1.216363e-04	
241	9.000000e-01	1.240059e-04	
242	9.100000e-01	1.263459e-04	
243	9.200000e-01	1.286568e-04	
244	9.300000e-01	1.309390e-04	
245	9.400000e-01	1.331927e-04	
246	9.500000e-01	1.354185e-04	
247	9.600000e-01	1.376167e-04	
248	9.700000e-01	1.397876e-04	
249	9.800000e-01	1.419316e-04	
250	9.900000e-01	1.440492e-04	
251	1.000000e+00	1.461406e-04	
252	1.010000e+00	1.482063e-04	
253	1.020000e+00	1.502465e-04	
254	1.030000e+00	1.522618e-04	
255	1.040000e+00	1.542524e-04	
256	1.050000e+00	1.562186e-04	
257	1.060000e+00	1.581609e-04	
258	1.070000e+00	1.600795e-04	
259	1.080000e+00	1.619748e-04	
260	1.090000e+00	1.638471e-04	
261	1.100000e+00	1.656967e-04	
262	1.110000e+00	1.675240e-04	
263	1.120000e+00	1.693293e-04	
264	1.130000e+00	1.711129e-04	
265	1.140000e+00	1.728751e-04	
266	1.150000e+00	1.746162e-04	
267	1.160000e+00	1.763364e-04	
268	1.170000e+00	1.780361e-04	
269	1.180000e+00	1.797156e-04	
270	1.190000e+00	1.813752e-04	
271	1.200000e+00	1.830150e-04	
272	1.210000e+00	1.846355e-04	
273	1.220000e+00	1.862368e-04	
274	1.230000e+00	1.878192e-04	
275	1.240000e+00	1.893830e-04	
276	1.250000e+00	1.909284e-04	
277	1.260000e+00	1.924558e-04	
278	1.270000e+00	1.939652e-04	
279	1.280000e+00	1.954570e-04	
280	1.290000e+00	1.969315e-04	
281	1.300000e+00	1.983887e-04	
282	1.310000e+00	1.998291e-04	
283	1.320000e+00	2.012528e-04	
284	1.330000e+00	2.026599e-04	
285	1.340000e+00	2.040509e-04	
286	1.350000e+00	2.054257e-04	

Index   v-sweep         vs#branch       
--------------------------------------------------------------------------------
287	1.360000e+00	2.067848e-04	
288	1.370000e+00	2.081282e-04	
289	1.380000e+00	2.094563e-04	
290	1.390000e+00	2.107691e-04	
291	1.400000e+00	2.120669e-04	
292	1.410000e+00	2.133498e-04	
293	1.420000e+00	2.146182e-04	
294	1.430000e+00	2.158721e-04	
295	1.440000e+00	2.171118e-04	
296	1.450000e+00	2.183374e-04	
297	1.460000e+00	2.195491e-04	
298	1.470000e+00	2.207471e-04	
299	1.480000e+00	2.219316e-04	
300	1.490000e+00	2.231027e-04	
301	1.500000e+00	2.242606e-04	
302	0.000000e+00	4.147012e-12	
303	1.000000e-02	5.647254e-12	
304	2.000000e-02	8.106891e-12	
305	3.000000e-02	1.163552e-11	
306	4.000000e-02	1.669644e-11	
307	5.000000e-02	2.524766e-11	
308	6.000000e-02	3.620823e-11	
309	7.000000e-02	5.191133e-11	
310	8.000000e-02	7.439939e-11	
311	9.000000e-02	1.065883e-10	
312	1.000000e-01	1.526370e-10	
313	1.100000e-01	2.184707e-10	
314	1.200000e-01	3.125197e-10	
315	1.300000e-01	4.467605e-10	
316	1.400000e-01	6.381768e-10	
317	1.500000e-01	9.108019e-10	
318	1.600000e-01	1.298541e-09	
319	1.700000e-01	1.848956e-09	
320	1.800000e-01	2.628745e-09	
321	1.900000e-01	3.731015e-09	
322	2.000000e-01	5.285115e-09	
323	2.100000e-01	7.469787e-09	
324	2.200000e-01	1.053054e-08	
325	2.300000e-01	1.480225e-08	
326	2.400000e-01	2.073822e-08	
327	2.500000e-01	2.894674e-08	
328	2.600000e-01	4.023636e-08	
329	2.700000e-01	5.567092e-08	
330	2.800000e-01	7.663492e-08	
331	2.900000e-01	1.049099e-07	
332	3.000000e-01	1.427622e-07	
333	3.100000e-01	1.930427e-07	
334	3.200000e-01	2.592996e-07	
335	3.300000e-01	3.459061e-07	
336	3.400000e-01	4.582048e-07	
337	3.500000e-01	6.026698e-07	
338	3.600000e-01	7.870858e-07	
339	3.700000e-01	1.020733e-06	
340	3.800000e-01	1.314555e-06	
341	3.900000e-01	1.681279e-06	
342	4.000000e-01	2.135409e-06	
343	4.100000e-01	2.693036e-06	
344	4.200000e-01	3.371321e-06	

Index   v-sweep         vs#branch       
--------------------------------------------------------------------------------
345	4.300000e-01	4.187509e-06	
346	4.400000e-01	5.157110e-06	
347	4.500000e-01	6.290461e-06	
348	4.600000e-01	7.587255e-06	
349	4.700000e-01	9.037608e-06	
350	4.800000e-01	1.063946e-05	
351	4.900000e-01	1.239978e-05	
352	5.000000e-01	1.432176e-05	
353	5.100000e-01	1.640249e-05	
354	5.200000e-01	1.863455e-05	
355	5.300000e-01	2.100746e-05	
356	5.400000e-01	2.350864e-05	
357	5.500000e-01	2.612423e-05	
358	5.600000e-01	2.883973e-05	
359	5.700000e-01	3.164062e-05	
360	5.800000e-01	3.447942e-05	
361	5.900000e-01	3.741588e-05	
362	6.000000e-01	4.039711e-05	
363	6.100000e-01	4.341164e-05	
364	6.200000e-01	4.644918e-05	
365	6.300000e-01	4.950063e-05	
366	6.400000e-01	5.255803e-05	
367	6.500000e-01	5.561452e-05	
368	6.600000e-01	5.866419e-05	
369	6.700000e-01	6.170204e-05	
370	6.800000e-01	6.472387e-05	
371	6.900000e-01	6.772618e-05	
372	7.000000e-01	7.070606e-05	
373	7.100000e-01	7.366115e-05	
374	7.200000e-01	7.658953e-05	
375	7.300000e-01	7.948967e-05	
376	7.400000e-01	8.236038e-05	
377	7.500000e-01	8.520071e-05	
378	7.600000e-01	8.800999e-05	
379	7.700000e-01	9.078772e-05	
380	7.800000e-01	9.353356e-05	
381	7.900000e-01	9.624732e-05	
382	8.000000e-01	9.892891e-05	
383	8.100000e-01	1.015784e-04	
384	8.200000e-01	1.041957e-04	
385	8.300000e-01	1.067812e-04	
386	8.400000e-01	1.093349e-04	
387	8.500000e-01	1.118572e-04	
388	8.600000e-01	1.143483e-04	
389	8.700000e-01	1.168085e-04	
390	8.800000e-01	1.192381e-04	
391	8.900000e-01	1.216375e-04	
392	9.000000e-01	1.240070e-04	
393	9.100000e-01	1.263470e-04	
394	9.200000e-01	1.286579e-04	
395	9.300000e-01	1.309401e-04	
396	9.400000e-01	1.331938e-04	
397	9.500000e-01	1.354196e-04	
398	9.600000e-01	1.376177e-04	
399	9.700000e-01	1.397886e-04	
400	9.800000e-01	1.419327e-04	
401	9.900000e-01	1.440502e-04	
402	1.000000e+00	1.461416e-04	

Index   v-sweep         vs#branch       
--------------------------------------------------------------------------------
403	1.010000e+00	1.482073e-04	
404	1.020000e+00	1.502476e-04	
405	1.030000e+00	1.522628e-04	
406	1.040000e+00	1.542534e-04	
407	1.050000e+00	1.562196e-04	
408	1.060000e+00	1.581618e-04	
409	1.070000e+00	1.600804e-04	
410	1.080000e+00	1.619757e-04	
411	1.090000e+00	1.638480e-04	
412	1.100000e+00	1.656977e-04	
413	1.110000e+00	1.675250e-04	
414	1.120000e+00	1.693303e-04	
415	1.130000e+00	1.711139e-04	
416	1.140000e+00	1.728760e-04	
417	1.150000e+00	1.746171e-04	
418	1.160000e+00	1.763373e-04	
419	1.170000e+00	1.780370e-04	
420	1.180000e+00	1.797165e-04	
421	1.190000e+00	1.813761e-04	
422	1.200000e+00	1.830159e-04	
423	1.210000e+00	1.846363e-04	
424	1.220000e+00	1.862376e-04	
425	1.230000e+00	1.878201e-04	
426	1.240000e+00	1.893838e-04	
427	1.250000e+00	1.909293e-04	
428	1.260000e+00	1.924566e-04	
429	1.270000e+00	1.939660e-04	
430	1.280000e+00	1.954579e-04	
431	1.290000e+00	1.969323e-04	
432	1.300000e+00	1.983896e-04	
433	1.310000e+00	1.998299e-04	
434	1.320000e+00	2.012536e-04	
435	1.330000e+00	2.026607e-04	
436	1.340000e+00	2.040516e-04	
437	1.350000e+00	2.054265e-04	
438	1.360000e+00	2.067856e-04	
439	1.370000e+00	2.081290e-04	
440	1.380000e+00	2.094570e-04	
441	1.390000e+00	2.107698e-04	
442	1.400000e+00	2.120676e-04	
443	1.410000e+00	2.133506e-04	
444	1.420000e+00	2.146189e-04	
445	1.430000e+00	2.158728e-04	
446	1.440000e+00	2.171125e-04	
447	1.450000e+00	2.183381e-04	
448	1.460000e+00	2.195498e-04	
449	1.470000e+00	2.207478e-04	
450	1.480000e+00	2.219323e-04	
451	1.490000e+00	2.231034e-04	
452	1.500000e+00	2.242613e-04	
453	0.000000e+00	4.148791e-12	
454	1.000000e-02	5.649556e-12	
455	2.000000e-02	8.109987e-12	
456	3.000000e-02	1.163969e-11	
457	4.000000e-02	1.670208e-11	
458	5.000000e-02	2.525557e-11	
459	6.000000e-02	3.621893e-11	
460	7.000000e-02	5.192582e-11	

Index   v-sweep         vs#branch       
--------------------------------------------------------------------------------
461	8.000000e-02	7.441903e-11	
462	9.000000e-02	1.066149e-10	
463	1.000000e-01	1.526731e-10	
464	1.100000e-01	2.185196e-10	
465	1.200000e-01	3.125860e-10	
466	1.300000e-01	4.468504e-10	
467	1.400000e-01	6.382984e-10	
468	1.500000e-01	9.109662e-10	
469	1.600000e-01	1.298763e-09	
470	1.700000e-01	1.849255e-09	
471	1.800000e-01	2.629145e-09	
472	1.900000e-01	3.731550e-09	
473	2.000000e-01	5.285828e-09	
474	2.100000e-01	7.470732e-09	
475	2.200000e-01	1.053178e-08	
476	2.300000e-01	1.480388e-08	
477	2.400000e-01	2.074034e-08	
478	2.500000e-01	2.894946e-08	
479	2.600000e-01	4.023983e-08	
480	2.700000e-01	5.567530e-08	
481	2.800000e-01	7.664038e-08	
482	2.900000e-01	1.049166e-07	
483	3.000000e-01	1.427704e-07	
484	3.100000e-01	1.930527e-07	
485	3.200000e-01	2.593118e-07	
486	3.300000e-01	3.459211e-07	
487	3.400000e-01	4.582232e-07	
488	3.500000e-01	6.026931e-07	
489	3.600000e-01	7.871160e-07	
490	3.700000e-01	1.020773e-06	
491	3.800000e-01	1.314610e-06	
492	3.900000e-01	1.681355e-06	
493	4.000000e-01	2.135515e-06	
494	4.100000e-01	2.693183e-06	
495	4.200000e-01	3.371522e-06	
496	4.300000e-01	4.187779e-06	
497	4.400000e-01	5.157463e-06	
498	4.500000e-01	6.290913e-06	
499	4.600000e-01	7.587820e-06	
500	4.700000e-01	9.038297e-06	
501	4.800000e-01	1.064028e-05	
502	4.900000e-01	1.240074e-05	
503	5.000000e-01	1.432286e-05	
504	5.100000e-01	1.640373e-05	
505	5.200000e-01	1.863593e-05	
506	5.300000e-01	2.100897e-05	
507	5.400000e-01	2.351027e-05	
508	5.500000e-01	2.612596e-05	
509	5.600000e-01	2.884157e-05	
510	5.700000e-01	3.164254e-05	
511	5.800000e-01	3.448143e-05	
512	5.900000e-01	3.741796e-05	
513	6.000000e-01	4.039924e-05	
514	6.100000e-01	4.341382e-05	
515	6.200000e-01	4.645139e-05	
516	6.300000e-01	4.950287e-05	
517	6.400000e-01	5.256030e-05	
518	6.500000e-01	5.561680e-05	

Index   v-sweep         vs#branch       
--------------------------------------------------------------------------------
519	6.600000e-01	5.866648e-05	
520	6.700000e-01	6.170434e-05	
521	6.800000e-01	6.472618e-05	
522	6.900000e-01	6.772848e-05	
523	7.000000e-01	7.070836e-05	
524	7.100000e-01	7.366345e-05	
525	7.200000e-01	7.659182e-05	
526	7.300000e-01	7.949196e-05	
527	7.400000e-01	8.236265e-05	
528	7.500000e-01	8.520297e-05	
529	7.600000e-01	8.801224e-05	
530	7.700000e-01	9.078995e-05	
531	7.800000e-01	9.353578e-05	
532	7.900000e-01	9.624952e-05	
533	8.000000e-01	9.893110e-05	
534	8.100000e-01	1.015805e-04	
535	8.200000e-01	1.041979e-04	
536	8.300000e-01	1.067833e-04	
537	8.400000e-01	1.093370e-04	
538	8.500000e-01	1.118593e-04	
539	8.600000e-01	1.143504e-04	
540	8.700000e-01	1.168105e-04	
541	8.800000e-01	1.192401e-04	
542	8.900000e-01	1.216395e-04	
543	9.000000e-01	1.240090e-04	
544	9.100000e-01	1.263490e-04	
545	9.200000e-01	1.286599e-04	
546	9.300000e-01	1.309420e-04	
547	9.400000e-01	1.331958e-04	
548	9.500000e-01	1.354215e-04	
549	9.600000e-01	1.376197e-04	
550	9.700000e-01	1.397905e-04	
551	9.800000e-01	1.419346e-04	
552	9.900000e-01	1.440521e-04	
553	1.000000e+00	1.461435e-04	
554	1.010000e+00	1.482091e-04	
555	1.020000e+00	1.502494e-04	
556	1.030000e+00	1.522646e-04	
557	1.040000e+00	1.542552e-04	
558	1.050000e+00	1.562214e-04	
559	1.060000e+00	1.581636e-04	
560	1.070000e+00	1.600822e-04	
561	1.080000e+00	1.619775e-04	
562	1.090000e+00	1.638498e-04	
563	1.100000e+00	1.656994e-04	
564	1.110000e+00	1.675267e-04	
565	1.120000e+00	1.693320e-04	
566	1.130000e+00	1.711155e-04	
567	1.140000e+00	1.728777e-04	
568	1.150000e+00	1.746187e-04	
569	1.160000e+00	1.763390e-04	
570	1.170000e+00	1.780387e-04	
571	1.180000e+00	1.797181e-04	
572	1.190000e+00	1.813776e-04	
573	1.200000e+00	1.830175e-04	
574	1.210000e+00	1.846379e-04	
575	1.220000e+00	1.862392e-04	
576	1.230000e+00	1.878216e-04	

Index   v-sweep         vs#branch       
--------------------------------------------------------------------------------
577	1.240000e+00	1.893854e-04	
578	1.250000e+00	1.909308e-04	
579	1.260000e+00	1.924581e-04	
580	1.270000e+00	1.939675e-04	
581	1.280000e+00	1.954593e-04	
582	1.290000e+00	1.969338e-04	
583	1.300000e+00	1.983910e-04	
584	1.310000e+00	1.998314e-04	
585	1.320000e+00	2.012550e-04	
586	1.330000e+00	2.026622e-04	
587	1.340000e+00	2.040531e-04	
588	1.350000e+00	2.054279e-04	
589	1.360000e+00	2.067870e-04	
590	1.370000e+00	2.081304e-04	
591	1.380000e+00	2.094584e-04	
592	1.390000e+00	2.107712e-04	
593	1.400000e+00	2.120690e-04	
594	1.410000e+00	2.133519e-04	
595	1.420000e+00	2.146202e-04	
596	1.430000e+00	2.158741e-04	
597	1.440000e+00	2.171138e-04	
598	1.450000e+00	2.183394e-04	
599	1.460000e+00	2.195511e-04	
600	1.470000e+00	2.207491e-04	
601	1.480000e+00	2.219335e-04	
602	1.490000e+00	2.231046e-04	
603	1.500000e+00	2.242625e-04	
604	0.000000e+00	4.342370e-12	
605	1.000000e-02	5.848072e-12	
606	2.000000e-02	8.319404e-12	
607	3.000000e-02	1.186246e-11	
608	4.000000e-02	1.693181e-11	
609	5.000000e-02	2.548303e-11	
610	6.000000e-02	3.645059e-11	
611	7.000000e-02	5.217063e-11	
612	8.000000e-02	7.468824e-11	
613	9.000000e-02	1.069212e-10	
614	1.000000e-01	1.530310e-10	
615	1.100000e-01	2.189467e-10	
616	1.200000e-01	3.131039e-10	
617	1.300000e-01	4.474865e-10	
618	1.400000e-01	6.390874e-10	
619	1.500000e-01	9.119524e-10	
620	1.600000e-01	1.300003e-09	
621	1.700000e-01	1.850819e-09	
622	1.800000e-01	2.631125e-09	
623	1.900000e-01	3.734059e-09	
624	2.000000e-01	5.289006e-09	
625	2.100000e-01	7.474753e-09	
626	2.200000e-01	1.053686e-08	
627	2.300000e-01	1.481026e-08	
628	2.400000e-01	2.074831e-08	
629	2.500000e-01	2.895936e-08	
630	2.600000e-01	4.025203e-08	
631	2.700000e-01	5.569021e-08	
632	2.800000e-01	7.665845e-08	
633	2.900000e-01	1.049383e-07	
634	3.000000e-01	1.427963e-07	

Index   v-sweep         vs#branch       
--------------------------------------------------------------------------------
635	3.100000e-01	1.930834e-07	
636	3.200000e-01	2.593481e-07	
637	3.300000e-01	3.459644e-07	
638	3.400000e-01	4.582756e-07	
639	3.500000e-01	6.027579e-07	
640	3.600000e-01	7.871986e-07	
641	3.700000e-01	1.020881e-06	
642	3.800000e-01	1.314755e-06	
643	3.900000e-01	1.681552e-06	
644	4.000000e-01	2.135786e-06	
645	4.100000e-01	2.693551e-06	
646	4.200000e-01	3.372018e-06	
647	4.300000e-01	4.188435e-06	
648	4.400000e-01	5.158314e-06	
649	4.500000e-01	6.291990e-06	
650	4.600000e-01	7.589152e-06	
651	4.700000e-01	9.039911e-06	
652	4.800000e-01	1.064220e-05	
653	4.900000e-01	1.240298e-05	
654	5.000000e-01	1.432543e-05	
655	5.100000e-01	1.640662e-05	
656	5.200000e-01	1.863913e-05	
657	5.300000e-01	2.101247e-05	
658	5.400000e-01	2.351405e-05	
659	5.500000e-01	2.613000e-05	
660	5.600000e-01	2.884584e-05	
661	5.700000e-01	3.164702e-05	
662	5.800000e-01	3.448610e-05	
663	5.900000e-01	3.742278e-05	
664	6.000000e-01	4.040419e-05	
665	6.100000e-01	4.341887e-05	
666	6.200000e-01	4.645654e-05	
667	6.300000e-01	4.950808e-05	
668	6.400000e-01	5.256557e-05	
669	6.500000e-01	5.562211e-05	
670	6.600000e-01	5.867181e-05	
671	6.700000e-01	6.170969e-05	
672	6.800000e-01	6.473153e-05	
673	6.900000e-01	6.773384e-05	
674	7.000000e-01	7.071371e-05	
675	7.100000e-01	7.366879e-05	
676	7.200000e-01	7.659714e-05	
677	7.300000e-01	7.949726e-05	
678	7.400000e-01	8.236793e-05	
679	7.500000e-01	8.520822e-05	
680	7.600000e-01	8.801746e-05	
681	7.700000e-01	9.079514e-05	
682	7.800000e-01	9.354093e-05	
683	7.900000e-01	9.625464e-05	
684	8.000000e-01	9.893619e-05	
685	8.100000e-01	1.015856e-04	
686	8.200000e-01	1.042029e-04	
687	8.300000e-01	1.067883e-04	
688	8.400000e-01	1.093420e-04	
689	8.500000e-01	1.118642e-04	
690	8.600000e-01	1.143552e-04	
691	8.700000e-01	1.168154e-04	
692	8.800000e-01	1.192449e-04	

Index   v-sweep         vs#branch       
--------------------------------------------------------------------------------
693	8.900000e-01	1.216443e-04	
694	9.000000e-01	1.240137e-04	
695	9.100000e-01	1.263537e-04	
696	9.200000e-01	1.286645e-04	
697	9.300000e-01	1.309466e-04	
698	9.400000e-01	1.332003e-04	
699	9.500000e-01	1.354260e-04	
700	9.600000e-01	1.376241e-04	
701	9.700000e-01	1.397950e-04	
702	9.800000e-01	1.419390e-04	
703	9.900000e-01	1.440564e-04	
704	1.000000e+00	1.461478e-04	
705	1.010000e+00	1.482134e-04	
706	1.020000e+00	1.502537e-04	
707	1.030000e+00	1.522688e-04	
708	1.040000e+00	1.542594e-04	
709	1.050000e+00	1.562255e-04	
710	1.060000e+00	1.581677e-04	
711	1.070000e+00	1.600863e-04	
712	1.080000e+00	1.619815e-04	
713	1.090000e+00	1.638538e-04	
714	1.100000e+00	1.657034e-04	
715	1.110000e+00	1.675306e-04	
716	1.120000e+00	1.693359e-04	
717	1.130000e+00	1.711194e-04	
718	1.140000e+00	1.728815e-04	
719	1.150000e+00	1.746225e-04	
720	1.160000e+00	1.763427e-04	
721	1.170000e+00	1.780424e-04	
722	1.180000e+00	1.797219e-04	
723	1.190000e+00	1.813813e-04	
724	1.200000e+00	1.830212e-04	
725	1.210000e+00	1.846415e-04	
726	1.220000e+00	1.862428e-04	
727	1.230000e+00	1.878252e-04	
728	1.240000e+00	1.893889e-04	
729	1.250000e+00	1.909343e-04	
730	1.260000e+00	1.924616e-04	
731	1.270000e+00	1.939710e-04	
732	1.280000e+00	1.954628e-04	
733	1.290000e+00	1.969372e-04	
734	1.300000e+00	1.983944e-04	
735	1.310000e+00	1.998347e-04	
736	1.320000e+00	2.012583e-04	
737	1.330000e+00	2.026655e-04	
738	1.340000e+00	2.040563e-04	
739	1.350000e+00	2.054312e-04	
740	1.360000e+00	2.067902e-04	
741	1.370000e+00	2.081336e-04	
742	1.380000e+00	2.094616e-04	
743	1.390000e+00	2.107743e-04	
744	1.400000e+00	2.120721e-04	
745	1.410000e+00	2.133550e-04	
746	1.420000e+00	2.146233e-04	
747	1.430000e+00	2.158772e-04	
748	1.440000e+00	2.171168e-04	
749	1.450000e+00	2.183424e-04	
750	1.460000e+00	2.195541e-04	

Index   v-sweep         vs#branch       
--------------------------------------------------------------------------------
751	1.470000e+00	2.207520e-04	
752	1.480000e+00	2.219365e-04	
753	1.490000e+00	2.231076e-04	
754	1.500000e+00	2.242654e-04	
755	0.000000e+00	1.035825e-11	
756	1.000000e-02	1.374050e-11	
757	2.000000e-02	1.904459e-11	
758	3.000000e-02	2.757713e-11	
759	4.000000e-02	3.821258e-11	
760	5.000000e-02	5.294171e-11	
761	6.000000e-02	7.333502e-11	
762	7.000000e-02	1.015622e-10	
763	8.000000e-02	1.406188e-10	
764	9.000000e-02	1.946371e-10	
765	1.000000e-01	2.693124e-10	
766	1.100000e-01	3.724855e-10	
767	1.200000e-01	5.149374e-10	
768	1.300000e-01	7.114699e-10	
769	1.400000e-01	9.823713e-10	
770	1.500000e-01	1.355395e-09	
771	1.600000e-01	1.868398e-09	
772	1.700000e-01	2.572718e-09	
773	1.800000e-01	3.538056e-09	
774	1.900000e-01	4.858667e-09	
775	2.000000e-01	6.661560e-09	
776	2.100000e-01	9.117327e-09	
777	2.200000e-01	1.245447e-08	
778	2.300000e-01	1.697864e-08	
779	2.400000e-01	2.309950e-08	
780	2.500000e-01	3.137067e-08	
781	2.600000e-01	4.255412e-08	
782	2.700000e-01	5.772124e-08	
783	2.800000e-01	7.835827e-08	
784	2.900000e-01	1.063745e-07	
785	3.000000e-01	1.440740e-07	
786	3.100000e-01	1.942644e-07	
787	3.200000e-01	2.604440e-07	
788	3.300000e-01	3.469806e-07	
789	3.400000e-01	4.592439e-07	
790	3.500000e-01	6.037297e-07	
791	3.600000e-01	7.882339e-07	
792	3.700000e-01	1.022048e-06	
793	3.800000e-01	1.316131e-06	
794	3.900000e-01	1.683226e-06	
795	4.000000e-01	2.137861e-06	
796	4.100000e-01	2.696140e-06	
797	4.200000e-01	3.375239e-06	
798	4.300000e-01	4.192406e-06	
799	4.400000e-01	5.163146e-06	
800	4.500000e-01	6.297792e-06	
801	4.600000e-01	7.596049e-06	
802	4.700000e-01	9.048061e-06	
803	4.800000e-01	1.065176e-05	
804	4.900000e-01	1.241405e-05	
805	5.000000e-01	1.433806e-05	
806	5.100000e-01	1.642081e-05	
807	5.200000e-01	1.865485e-05	
808	5.300000e-01	2.102965e-05	

Index   v-sweep         vs#branch       
--------------------------------------------------------------------------------
809	5.400000e-01	2.353259e-05	
810	5.500000e-01	2.614978e-05	
811	5.600000e-01	2.886674e-05	
812	5.700000e-01	3.166891e-05	
813	5.800000e-01	3.450891e-05	
814	5.900000e-01	3.744633e-05	
815	6.000000e-01	4.042837e-05	
816	6.100000e-01	4.344357e-05	
817	6.200000e-01	4.648165e-05	
818	6.300000e-01	4.953353e-05	
819	6.400000e-01	5.259127e-05	
820	6.500000e-01	5.564800e-05	
821	6.600000e-01	5.869783e-05	
822	6.700000e-01	6.173579e-05	
823	6.800000e-01	6.475767e-05	
824	6.900000e-01	6.775997e-05	
825	7.000000e-01	7.073981e-05	
826	7.100000e-01	7.369482e-05	
827	7.200000e-01	7.662310e-05	
828	7.300000e-01	7.952311e-05	
829	7.400000e-01	8.239365e-05	
830	7.500000e-01	8.523382e-05	
831	7.600000e-01	8.804291e-05	
832	7.700000e-01	9.082044e-05	
833	7.800000e-01	9.356607e-05	
834	7.900000e-01	9.627961e-05	
835	8.000000e-01	9.896098e-05	
836	8.100000e-01	1.016102e-04	
837	8.200000e-01	1.042273e-04	
838	8.300000e-01	1.068125e-04	
839	8.400000e-01	1.093660e-04	
840	8.500000e-01	1.118881e-04	
841	8.600000e-01	1.143789e-04	
842	8.700000e-01	1.168388e-04	
843	8.800000e-01	1.192682e-04	
844	8.900000e-01	1.216674e-04	
845	9.000000e-01	1.240367e-04	
846	9.100000e-01	1.263765e-04	
847	9.200000e-01	1.286871e-04	
848	9.300000e-01	1.309690e-04	
849	9.400000e-01	1.332225e-04	
850	9.500000e-01	1.354480e-04	
851	9.600000e-01	1.376460e-04	
852	9.700000e-01	1.398166e-04	
853	9.800000e-01	1.419604e-04	
854	9.900000e-01	1.440777e-04	
855	1.000000e+00	1.461689e-04	
856	1.010000e+00	1.482344e-04	
857	1.020000e+00	1.502744e-04	
858	1.030000e+00	1.522894e-04	
859	1.040000e+00	1.542798e-04	
860	1.050000e+00	1.562458e-04	
861	1.060000e+00	1.581878e-04	
862	1.070000e+00	1.601062e-04	
863	1.080000e+00	1.620012e-04	
864	1.090000e+00	1.638733e-04	
865	1.100000e+00	1.657228e-04	
866	1.110000e+00	1.675499e-04	

Index   v-sweep         vs#branch       
--------------------------------------------------------------------------------
867	1.120000e+00	1.693550e-04	
868	1.130000e+00	1.711383e-04	
869	1.140000e+00	1.729003e-04	
870	1.150000e+00	1.746412e-04	
871	1.160000e+00	1.763612e-04	
872	1.170000e+00	1.780607e-04	
873	1.180000e+00	1.797400e-04	
874	1.190000e+00	1.813994e-04	
875	1.200000e+00	1.830390e-04	
876	1.210000e+00	1.846593e-04	
877	1.220000e+00	1.862604e-04	
878	1.230000e+00	1.878426e-04	
879	1.240000e+00	1.894062e-04	
880	1.250000e+00	1.909515e-04	
881	1.260000e+00	1.924786e-04	
882	1.270000e+00	1.939879e-04	
883	1.280000e+00	1.954795e-04	
884	1.290000e+00	1.969538e-04	
885	1.300000e+00	1.984109e-04	
886	1.310000e+00	1.998511e-04	
887	1.320000e+00	2.012745e-04	
888	1.330000e+00	2.026816e-04	
889	1.340000e+00	2.040723e-04	
890	1.350000e+00	2.054470e-04	
891	1.360000e+00	2.068059e-04	
892	1.370000e+00	2.081492e-04	
893	1.380000e+00	2.094770e-04	
894	1.390000e+00	2.107897e-04	
895	1.400000e+00	2.120873e-04	
896	1.410000e+00	2.133701e-04	
897	1.420000e+00	2.146383e-04	
898	1.430000e+00	2.158921e-04	
899	1.440000e+00	2.171316e-04	
900	1.450000e+00	2.183570e-04	
901	1.460000e+00	2.195686e-04	
902	1.470000e+00	2.207665e-04	
903	1.480000e+00	2.219508e-04	
904	1.490000e+00	2.231218e-04	
905	1.500000e+00	2.242795e-04	
906	0.000000e+00	2.888814e-11	
907	1.000000e-02	3.985200e-11	
908	2.000000e-02	5.497377e-11	
909	3.000000e-02	7.582477e-11	
910	4.000000e-02	1.045667e-10	
911	5.000000e-02	1.441716e-10	
912	6.000000e-02	1.987217e-10	
913	7.000000e-02	2.738195e-10	
914	8.000000e-02	3.771447e-10	
915	9.000000e-02	5.192109e-10	
916	1.000000e-01	7.143893e-10	
917	1.100000e-01	9.822894e-10	
918	1.200000e-01	1.349613e-09	
919	1.300000e-01	1.852634e-09	
920	1.400000e-01	2.540492e-09	
921	1.500000e-01	3.479546e-09	
922	1.600000e-01	4.759021e-09	
923	1.700000e-01	6.497972e-09	
924	1.800000e-01	8.855179e-09	

Index   v-sweep         vs#branch       
--------------------------------------------------------------------------------
925	1.900000e-01	1.204107e-08	
926	2.000000e-01	1.633276e-08	
927	2.100000e-01	2.209272e-08	
928	2.200000e-01	2.979157e-08	
929	2.300000e-01	4.003547e-08	
930	2.400000e-01	5.359841e-08	
931	2.500000e-01	7.145981e-08	
932	2.600000e-01	9.484748e-08	
933	2.700000e-01	1.252861e-07	
934	2.800000e-01	1.646516e-07	
935	2.900000e-01	2.152318e-07	
936	3.000000e-01	2.797944e-07	
937	3.100000e-01	3.616633e-07	
938	3.200000e-01	4.648060e-07	
939	3.300000e-01	5.939315e-07	
940	3.400000e-01	7.546012e-07	
941	3.500000e-01	9.533483e-07	
942	3.600000e-01	1.197800e-06	
943	3.700000e-01	1.496793e-06	
944	3.800000e-01	1.860454e-06	
945	3.900000e-01	2.300243e-06	
946	4.000000e-01	2.828906e-06	
947	4.100000e-01	3.460354e-06	
948	4.200000e-01	4.209458e-06	
949	4.300000e-01	5.091849e-06	
950	4.400000e-01	6.123857e-06	
951	4.500000e-01	7.322601e-06	
952	4.600000e-01	8.704781e-06	
953	4.700000e-01	1.028153e-05	
954	4.800000e-01	1.205570e-05	
955	4.900000e-01	1.402401e-05	
956	5.000000e-01	1.617661e-05	
957	5.100000e-01	1.849841e-05	
958	5.200000e-01	2.097175e-05	
959	5.300000e-01	2.357818e-05	
960	5.400000e-01	2.629938e-05	
961	5.500000e-01	2.911767e-05	
962	5.600000e-01	3.201639e-05	
963	5.700000e-01	3.495007e-05	
964	5.800000e-01	3.797144e-05	
965	5.900000e-01	4.103021e-05	
966	6.000000e-01	4.411506e-05	
967	6.100000e-01	4.721604e-05	
968	6.200000e-01	5.032449e-05	
969	6.300000e-01	5.343296e-05	
970	6.400000e-01	5.653509e-05	
971	6.500000e-01	5.962550e-05	
972	6.600000e-01	6.269969e-05	
973	6.700000e-01	6.575390e-05	
974	6.800000e-01	6.878506e-05	
975	6.900000e-01	7.179063e-05	
976	7.000000e-01	7.476860e-05	
977	7.100000e-01	7.771735e-05	
978	7.200000e-01	8.063561e-05	
979	7.300000e-01	8.352244e-05	
980	7.400000e-01	8.637711e-05	
981	7.500000e-01	8.919913e-05	
982	7.600000e-01	9.198815e-05	

Index   v-sweep         vs#branch       
--------------------------------------------------------------------------------
983	7.700000e-01	9.474399e-05	
984	7.800000e-01	9.746659e-05	
985	7.900000e-01	1.001560e-04	
986	8.000000e-01	1.028123e-04	
987	8.100000e-01	1.054356e-04	
988	8.200000e-01	1.080263e-04	
989	8.300000e-01	1.105845e-04	
990	8.400000e-01	1.131106e-04	
991	8.500000e-01	1.156049e-04	
992	8.600000e-01	1.180678e-04	
993	8.700000e-01	1.204996e-04	
994	8.800000e-01	1.229008e-04	
995	8.900000e-01	1.252716e-04	
996	9.000000e-01	1.276126e-04	
997	9.100000e-01	1.299241e-04	
998	9.200000e-01	1.322065e-04	
999	9.300000e-01	1.344602e-04	
1000	9.400000e-01	1.366856e-04	
1001	9.500000e-01	1.388832e-04	
1002	9.600000e-01	1.410533e-04	
1003	9.700000e-01	1.431962e-04	
1004	9.800000e-01	1.453125e-04	
1005	9.900000e-01	1.474025e-04	
1006	1.000000e+00	1.494665e-04	
1007	1.010000e+00	1.515050e-04	
1008	1.020000e+00	1.535183e-04	
1009	1.030000e+00	1.555068e-04	
1010	1.040000e+00	1.574708e-04	
1011	1.050000e+00	1.594106e-04	
1012	1.060000e+00	1.613268e-04	
1013	1.070000e+00	1.632195e-04	
1014	1.080000e+00	1.650891e-04	
1015	1.090000e+00	1.669360e-04	
1016	1.100000e+00	1.687604e-04	
1017	1.110000e+00	1.705627e-04	
1018	1.120000e+00	1.723433e-04	
1019	1.130000e+00	1.741023e-04	
1020	1.140000e+00	1.758402e-04	
1021	1.150000e+00	1.775573e-04	
1022	1.160000e+00	1.792537e-04	
1023	1.170000e+00	1.809298e-04	
1024	1.180000e+00	1.825860e-04	
1025	1.190000e+00	1.842224e-04	
1026	1.200000e+00	1.858393e-04	
1027	1.210000e+00	1.874371e-04	
1028	1.220000e+00	1.890160e-04	
1029	1.230000e+00	1.905762e-04	
1030	1.240000e+00	1.921180e-04	
1031	1.250000e+00	1.936417e-04	
1032	1.260000e+00	1.951475e-04	
1033	1.270000e+00	1.966356e-04	
1034	1.280000e+00	1.981063e-04	
1035	1.290000e+00	1.995598e-04	
1036	1.300000e+00	2.009964e-04	
1037	1.310000e+00	2.024163e-04	
1038	1.320000e+00	2.038197e-04	
1039	1.330000e+00	2.052068e-04	
1040	1.340000e+00	2.065779e-04	

Index   v-sweep         vs#branch       
--------------------------------------------------------------------------------
1041	1.350000e+00	2.079331e-04	
1042	1.360000e+00	2.092727e-04	
1043	1.370000e+00	2.105969e-04	
1044	1.380000e+00	2.119058e-04	
1045	1.390000e+00	2.131998e-04	
1046	1.400000e+00	2.144789e-04	
1047	1.410000e+00	2.157434e-04	
1048	1.420000e+00	2.169934e-04	
1049	1.430000e+00	2.182292e-04	
1050	1.440000e+00	2.194510e-04	
1051	1.450000e+00	2.206588e-04	
1052	1.460000e+00	2.218530e-04	
1053	1.470000e+00	2.230336e-04	
1054	1.480000e+00	2.242009e-04	
1055	1.490000e+00	2.253549e-04	
1056	1.500000e+00	2.264960e-04	
1057	0.000000e+00	9.353506e-11	
1058	1.000000e-02	1.279145e-10	
1059	2.000000e-02	1.750465e-10	
1060	3.000000e-02	2.396334e-10	
1061	4.000000e-02	3.280945e-10	
1062	5.000000e-02	4.491831e-10	
1063	6.000000e-02	6.148191e-10	
1064	7.000000e-02	8.412100e-10	
1065	8.000000e-02	1.150353e-09	
1066	9.000000e-02	1.572042e-09	
1067	1.000000e-01	2.146534e-09	
1068	1.100000e-01	2.928076e-09	
1069	1.200000e-01	3.989531e-09	
1070	1.300000e-01	5.428422e-09	
1071	1.400000e-01	7.374732e-09	
1072	1.500000e-01	1.000091e-08	
1073	1.600000e-01	1.353437e-08	
1074	1.700000e-01	1.827214e-08	
1075	1.800000e-01	2.460148e-08	
1076	1.900000e-01	3.302316e-08	
1077	2.000000e-01	4.417953e-08	
1078	2.100000e-01	5.888767e-08	
1079	2.200000e-01	7.817794e-08	
1080	2.300000e-01	1.033380e-07	
1081	2.400000e-01	1.359629e-07	
1082	2.500000e-01	1.780104e-07	
1083	2.600000e-01	2.318645e-07	
1084	2.700000e-01	3.004048e-07	
1085	2.800000e-01	3.870860e-07	
1086	2.900000e-01	4.960270e-07	
1087	3.000000e-01	6.321102e-07	
1088	3.100000e-01	8.010920e-07	
1089	3.200000e-01	1.009717e-06	
1090	3.300000e-01	1.265831e-06	
1091	3.400000e-01	1.578474e-06	
1092	3.500000e-01	1.957932e-06	
1093	3.600000e-01	2.415719e-06	
1094	3.700000e-01	2.964459e-06	
1095	3.800000e-01	3.617623e-06	
1096	3.900000e-01	4.389115e-06	
1097	4.000000e-01	5.292685e-06	
1098	4.100000e-01	6.341219e-06	

Index   v-sweep         vs#branch       
--------------------------------------------------------------------------------
1099	4.200000e-01	7.545935e-06	
1100	4.300000e-01	8.915619e-06	
1101	4.400000e-01	1.045596e-05	
1102	4.500000e-01	1.216909e-05	
1103	4.600000e-01	1.405338e-05	
1104	4.700000e-01	1.610353e-05	
1105	4.800000e-01	1.831121e-05	
1106	4.900000e-01	2.066572e-05	
1107	5.000000e-01	2.315455e-05	
1108	5.100000e-01	2.576403e-05	
1109	5.200000e-01	2.847997e-05	
1110	5.300000e-01	3.128834e-05	
1111	5.400000e-01	3.417569e-05	
1112	5.500000e-01	3.709826e-05	
1113	5.600000e-01	4.011279e-05	
1114	5.700000e-01	4.317202e-05	
1115	5.800000e-01	4.626735e-05	
1116	5.900000e-01	4.939112e-05	
1117	6.000000e-01	5.253592e-05	
1118	6.100000e-01	5.569386e-05	
1119	6.200000e-01	5.885626e-05	
1120	6.300000e-01	6.201413e-05	
1121	6.400000e-01	6.515914e-05	
1122	6.500000e-01	6.828434e-05	
1123	6.600000e-01	7.138439e-05	
1124	6.700000e-01	7.445536e-05	
1125	6.800000e-01	7.749444e-05	
1126	6.900000e-01	8.049965e-05	
1127	7.000000e-01	8.346967e-05	
1128	7.100000e-01	8.640361e-05	
1129	7.200000e-01	8.930097e-05	
1130	7.300000e-01	9.216148e-05	
1131	7.400000e-01	9.498508e-05	
1132	7.500000e-01	9.777186e-05	
1133	7.600000e-01	1.005220e-04	
1134	7.700000e-01	1.032359e-04	
1135	7.800000e-01	1.059138e-04	
1136	7.900000e-01	1.085561e-04	
1137	8.000000e-01	1.111634e-04	
1138	8.100000e-01	1.137360e-04	
1139	8.200000e-01	1.162744e-04	
1140	8.300000e-01	1.187792e-04	
1141	8.400000e-01	1.212509e-04	
1142	8.500000e-01	1.236899e-04	
1143	8.600000e-01	1.260968e-04	
1144	8.700000e-01	1.284721e-04	
1145	8.800000e-01	1.308162e-04	
1146	8.900000e-01	1.331297e-04	
1147	9.000000e-01	1.354132e-04	
1148	9.100000e-01	1.376669e-04	
1149	9.200000e-01	1.398915e-04	
1150	9.300000e-01	1.420874e-04	
1151	9.400000e-01	1.442551e-04	
1152	9.500000e-01	1.463949e-04	
1153	9.600000e-01	1.485075e-04	
1154	9.700000e-01	1.505931e-04	
1155	9.800000e-01	1.526522e-04	
1156	9.900000e-01	1.546852e-04	

Index   v-sweep         vs#branch       
--------------------------------------------------------------------------------
1157	1.000000e+00	1.566926e-04	
1158	1.010000e+00	1.586748e-04	
1159	1.020000e+00	1.606320e-04	
1160	1.030000e+00	1.625648e-04	
1161	1.040000e+00	1.644735e-04	
1162	1.050000e+00	1.663584e-04	
1163	1.060000e+00	1.682199e-04	
1164	1.070000e+00	1.700585e-04	
1165	1.080000e+00	1.718743e-04	
1166	1.090000e+00	1.736678e-04	
1167	1.100000e+00	1.754393e-04	
1168	1.110000e+00	1.771892e-04	
1169	1.120000e+00	1.789176e-04	
1170	1.130000e+00	1.806251e-04	
1171	1.140000e+00	1.823118e-04	
1172	1.150000e+00	1.839780e-04	
1173	1.160000e+00	1.856242e-04	
1174	1.170000e+00	1.872505e-04	
1175	1.180000e+00	1.888572e-04	
1176	1.190000e+00	1.904446e-04	
1177	1.200000e+00	1.920131e-04	
1178	1.210000e+00	1.935628e-04	
1179	1.220000e+00	1.950941e-04	
1180	1.230000e+00	1.966071e-04	
1181	1.240000e+00	1.981022e-04	
1182	1.250000e+00	1.995796e-04	
1183	1.260000e+00	2.010396e-04	
1184	1.270000e+00	2.024823e-04	
1185	1.280000e+00	2.039081e-04	
1186	1.290000e+00	2.053171e-04	
1187	1.300000e+00	2.067096e-04	
1188	1.310000e+00	2.080858e-04	
1189	1.320000e+00	2.094460e-04	
1190	1.330000e+00	2.107903e-04	
1191	1.340000e+00	2.121190e-04	
1192	1.350000e+00	2.134322e-04	
1193	1.360000e+00	2.147303e-04	
1194	1.370000e+00	2.160133e-04	
1195	1.380000e+00	2.172815e-04	
1196	1.390000e+00	2.185351e-04	
1197	1.400000e+00	2.197743e-04	
1198	1.410000e+00	2.209992e-04	
1199	1.420000e+00	2.222101e-04	
1200	1.430000e+00	2.234071e-04	
1201	1.440000e+00	2.245905e-04	
1202	1.450000e+00	2.257603e-04	
1203	1.460000e+00	2.269168e-04	
1204	1.470000e+00	2.280602e-04	
1205	1.480000e+00	2.291905e-04	
1206	1.490000e+00	2.303081e-04	
1207	1.500000e+00	2.314129e-04	
1208	0.000000e+00	3.853291e-10	
1209	1.000000e-02	5.115682e-10	
1210	2.000000e-02	6.831691e-10	
1211	3.000000e-02	9.162574e-10	
1212	4.000000e-02	1.232590e-09	
1213	5.000000e-02	1.661468e-09	
1214	6.000000e-02	2.242261e-09	

Index   v-sweep         vs#branch       
--------------------------------------------------------------------------------
1215	7.000000e-02	3.027733e-09	
1216	8.000000e-02	4.088398e-09	
1217	9.000000e-02	5.518170e-09	
1218	1.000000e-01	7.441664e-09	
1219	1.100000e-01	1.002352e-08	
1220	1.200000e-01	1.348020e-08	
1221	1.300000e-01	1.809483e-08	
1222	1.400000e-01	2.423546e-08	
1223	1.500000e-01	3.237750e-08	
1224	1.600000e-01	4.313011e-08	
1225	1.700000e-01	5.726476e-08	
1226	1.800000e-01	7.575602e-08	
1227	1.900000e-01	9.982342e-08	
1228	2.000000e-01	1.309796e-07	
1229	2.100000e-01	1.710852e-07	
1230	2.200000e-01	2.224108e-07	
1231	2.300000e-01	2.877061e-07	
1232	2.400000e-01	3.702785e-07	
1233	2.500000e-01	4.740812e-07	
1234	2.600000e-01	6.038112e-07	
1235	2.700000e-01	7.650179e-07	
1236	2.800000e-01	9.642163e-07	
1237	2.900000e-01	1.209000e-06	
1238	3.000000e-01	1.508136e-06	
1239	3.100000e-01	1.871627e-06	
1240	3.200000e-01	2.310709e-06	
1241	3.300000e-01	2.837751e-06	
1242	3.400000e-01	3.466032e-06	
1243	3.500000e-01	4.209363e-06	
1244	3.600000e-01	5.081545e-06	
1245	3.700000e-01	6.095690e-06	
1246	3.800000e-01	7.263442e-06	
1247	3.900000e-01	8.594197e-06	
1248	4.000000e-01	1.009442e-05	
1249	4.100000e-01	1.176714e-05	
1250	4.200000e-01	1.361174e-05	
1251	4.300000e-01	1.562402e-05	
1252	4.400000e-01	1.779649e-05	
1253	4.500000e-01	2.011889e-05	
1254	4.600000e-01	2.257882e-05	
1255	4.700000e-01	2.516240e-05	
1256	4.800000e-01	2.785503e-05	
1257	4.900000e-01	3.064202e-05	
1258	5.000000e-01	3.350892e-05	
1259	5.100000e-01	3.641112e-05	
1260	5.200000e-01	3.940360e-05	
1261	5.300000e-01	4.243685e-05	
1262	5.400000e-01	4.550008e-05	
1263	5.500000e-01	4.858376e-05	
1264	5.600000e-01	5.167949e-05	
1265	5.700000e-01	5.478002e-05	
1266	5.800000e-01	5.787913e-05	
1267	5.900000e-01	6.097156e-05	
1268	6.000000e-01	6.405293e-05	
1269	6.100000e-01	6.711962e-05	
1270	6.200000e-01	7.016871e-05	
1271	6.300000e-01	7.319789e-05	
1272	6.400000e-01	7.620537e-05	

Index   v-sweep         vs#branch       
--------------------------------------------------------------------------------
1273	6.500000e-01	7.918981e-05	
1274	6.600000e-01	8.215019e-05	
1275	6.700000e-01	8.508571e-05	
1276	6.800000e-01	8.799571e-05	
1277	6.900000e-01	9.087949e-05	
1278	7.000000e-01	9.373626e-05	
1279	7.100000e-01	9.656507e-05	
1280	7.200000e-01	9.936481e-05	
1281	7.300000e-01	1.021343e-04	
1282	7.400000e-01	1.048725e-04	
1283	7.500000e-01	1.075784e-04	
1284	7.600000e-01	1.102513e-04	
1285	7.700000e-01	1.128906e-04	
1286	7.800000e-01	1.154960e-04	
1287	7.900000e-01	1.180675e-04	
1288	8.000000e-01	1.206049e-04	
1289	8.100000e-01	1.231086e-04	
1290	8.200000e-01	1.255788e-04	
1291	8.300000e-01	1.280158e-04	
1292	8.400000e-01	1.304200e-04	
1293	8.500000e-01	1.327919e-04	
1294	8.600000e-01	1.351319e-04	
1295	8.700000e-01	1.374406e-04	
1296	8.800000e-01	1.397183e-04	
1297	8.900000e-01	1.419657e-04	
1298	9.000000e-01	1.441832e-04	
1299	9.100000e-01	1.463712e-04	
1300	9.200000e-01	1.485303e-04	
1301	9.300000e-01	1.506610e-04	
1302	9.400000e-01	1.527638e-04	
1303	9.500000e-01	1.548391e-04	
1304	9.600000e-01	1.568873e-04	
1305	9.700000e-01	1.589090e-04	
1306	9.800000e-01	1.609045e-04	
1307	9.900000e-01	1.628743e-04	
1308	1.000000e+00	1.648189e-04	
1309	1.010000e+00	1.667386e-04	
1310	1.020000e+00	1.686338e-04	
1311	1.030000e+00	1.705050e-04	
1312	1.040000e+00	1.723525e-04	
1313	1.050000e+00	1.741767e-04	
1314	1.060000e+00	1.759780e-04	
1315	1.070000e+00	1.777567e-04	
1316	1.080000e+00	1.795132e-04	
1317	1.090000e+00	1.812478e-04	
1318	1.100000e+00	1.829609e-04	
1319	1.110000e+00	1.846529e-04	
1320	1.120000e+00	1.863239e-04	
1321	1.130000e+00	1.879744e-04	
1322	1.140000e+00	1.896046e-04	
1323	1.150000e+00	1.912149e-04	
1324	1.160000e+00	1.928056e-04	
1325	1.170000e+00	1.943769e-04	
1326	1.180000e+00	1.959292e-04	
1327	1.190000e+00	1.974626e-04	
1328	1.200000e+00	1.989776e-04	
1329	1.210000e+00	2.004743e-04	
1330	1.220000e+00	2.019531e-04	

Index   v-sweep         vs#branch       
--------------------------------------------------------------------------------
1331	1.230000e+00	2.034141e-04	
1332	1.240000e+00	2.048577e-04	
1333	1.250000e+00	2.062840e-04	
1334	1.260000e+00	2.076934e-04	
1335	1.270000e+00	2.090861e-04	
1336	1.280000e+00	2.104622e-04	
1337	1.290000e+00	2.118221e-04	
1338	1.300000e+00	2.131660e-04	
1339	1.310000e+00	2.144940e-04	
1340	1.320000e+00	2.158064e-04	
1341	1.330000e+00	2.171035e-04	
1342	1.340000e+00	2.183854e-04	
1343	1.350000e+00	2.196523e-04	
1344	1.360000e+00	2.209044e-04	
1345	1.370000e+00	2.221420e-04	
1346	1.380000e+00	2.233653e-04	
1347	1.390000e+00	2.245743e-04	
1348	1.400000e+00	2.257694e-04	
1349	1.410000e+00	2.269506e-04	
1350	1.420000e+00	2.281182e-04	
1351	1.430000e+00	2.292724e-04	
1352	1.440000e+00	2.304134e-04	
1353	1.450000e+00	2.315412e-04	
1354	1.460000e+00	2.326561e-04	
1355	1.470000e+00	2.337583e-04	
1356	1.480000e+00	2.348479e-04	
1357	1.490000e+00	2.359250e-04	
1358	1.500000e+00	2.369899e-04	




