 Reference value :  2.80000e-01
No. of Data Rows : 1359

Circuit: *model = BSIMSOI (DD)

Doing analysis at TEMP = 300.150000 and TNOM = 300.150000
Warning: Pd = 0 is less than W.
Warning: Ps = 0 is less than W.
                             *model = BSIMSOI (DD)
--------------------------------------------------------------------------------
Index   v-sweep         vs#branch       
--------------------------------------------------------------------------------
0	0.000000e+00	2.064981e-12	
1	1.000000e-02	2.750966e-12	
2	2.000000e-02	3.834753e-12	
3	3.000000e-02	5.345268e-12	
4	4.000000e-02	7.450202e-12	
5	5.000000e-02	1.038322e-11	
6	6.000000e-02	1.446957e-11	
7	7.000000e-02	2.016188e-11	
8	8.000000e-02	2.938743e-11	
9	9.000000e-02	4.093474e-11	
10	1.000000e-01	5.700856e-11	
11	1.100000e-01	7.937633e-11	
12	1.200000e-01	1.104912e-10	
13	1.300000e-01	1.537552e-10	
14	1.400000e-01	2.138818e-10	
15	1.500000e-01	2.973940e-10	
16	1.600000e-01	4.133010e-10	
17	1.700000e-01	5.739877e-10	
18	1.800000e-01	7.965107e-10	
19	1.900000e-01	1.104291e-09	
20	2.000000e-01	1.529397e-09	
21	2.100000e-01	2.115610e-09	
22	2.200000e-01	2.922495e-09	
23	2.300000e-01	4.030771e-09	
24	2.400000e-01	5.549341e-09	
25	2.500000e-01	7.624372e-09	
26	2.600000e-01	1.045092e-08	
27	2.700000e-01	1.428761e-08	
28	2.800000e-01	1.947483e-08	
29	2.900000e-01	2.645706e-08	
30	3.000000e-01	3.580963e-08	
31	3.100000e-01	4.827032e-08	
32	3.200000e-01	6.477582e-08	
33	3.300000e-01	8.650332e-08	
34	3.400000e-01	1.149169e-07	
35	3.500000e-01	1.518190e-07	
36	3.600000e-01	1.994073e-07	
37	3.700000e-01	2.603381e-07	
38	3.800000e-01	3.377970e-07	
39	3.900000e-01	4.355794e-07	
40	4.000000e-01	5.581821e-07	
41	4.100000e-01	7.108746e-07	
42	4.200000e-01	8.996268e-07	
43	4.300000e-01	1.131406e-06	
44	4.400000e-01	1.414288e-06	
45	4.500000e-01	1.757461e-06	
46	4.600000e-01	2.171230e-06	
47	4.700000e-01	2.666926e-06	
48	4.800000e-01	3.256704e-06	
49	4.900000e-01	3.953195e-06	
50	5.000000e-01	4.769004e-06	
51	5.100000e-01	5.716084e-06	
52	5.200000e-01	6.805016e-06	
53	5.300000e-01	8.044296e-06	
54	5.400000e-01	9.439702e-06	

Index   v-sweep         vs#branch       
--------------------------------------------------------------------------------
55	5.500000e-01	1.099386e-05	
56	5.600000e-01	1.270604e-05	
57	5.700000e-01	1.457225e-05	
58	5.800000e-01	1.658558e-05	
59	5.900000e-01	1.873680e-05	
60	6.000000e-01	2.101516e-05	
61	6.100000e-01	2.340955e-05	
62	6.200000e-01	2.591048e-05	
63	6.300000e-01	2.851274e-05	
64	6.400000e-01	3.121346e-05	
65	6.500000e-01	3.400052e-05	
66	6.600000e-01	3.682399e-05	
67	6.700000e-01	3.973373e-05	
68	6.800000e-01	4.267639e-05	
69	6.900000e-01	4.564151e-05	
70	7.000000e-01	4.862013e-05	
71	7.100000e-01	5.160457e-05	
72	7.200000e-01	5.458823e-05	
73	7.300000e-01	5.756553e-05	
74	7.400000e-01	6.053177e-05	
75	7.500000e-01	6.348300e-05	
76	7.600000e-01	6.641595e-05	
77	7.700000e-01	6.932793e-05	
78	7.800000e-01	7.221673e-05	
79	7.900000e-01	7.508055e-05	
80	8.000000e-01	7.791798e-05	
81	8.100000e-01	8.072789e-05	
82	8.200000e-01	8.350941e-05	
83	8.300000e-01	8.626190e-05	
84	8.400000e-01	8.898488e-05	
85	8.500000e-01	9.167803e-05	
86	8.600000e-01	9.434117e-05	
87	8.700000e-01	9.697422e-05	
88	8.800000e-01	9.957718e-05	
89	8.900000e-01	1.021501e-04	
90	9.000000e-01	1.046932e-04	
91	9.100000e-01	1.072067e-04	
92	9.200000e-01	1.096907e-04	
93	9.300000e-01	1.121456e-04	
94	9.400000e-01	1.145716e-04	
95	9.500000e-01	1.169692e-04	
96	9.600000e-01	1.193386e-04	
97	9.700000e-01	1.216802e-04	
98	9.800000e-01	1.239944e-04	
99	9.900000e-01	1.262816e-04	
100	1.000000e+00	1.285421e-04	
101	1.010000e+00	1.307764e-04	
102	1.020000e+00	1.329848e-04	
103	1.030000e+00	1.351677e-04	
104	1.040000e+00	1.373255e-04	
105	1.050000e+00	1.394584e-04	
106	1.060000e+00	1.415668e-04	
107	1.070000e+00	1.436509e-04	
108	1.080000e+00	1.457110e-04	
109	1.090000e+00	1.477474e-04	
110	1.100000e+00	1.497601e-04	
111	1.110000e+00	1.517494e-04	
112	1.120000e+00	1.537155e-04	

Index   v-sweep         vs#branch       
--------------------------------------------------------------------------------
113	1.130000e+00	1.556586e-04	
114	1.140000e+00	1.575788e-04	
115	1.150000e+00	1.594762e-04	
116	1.160000e+00	1.613512e-04	
117	1.170000e+00	1.632039e-04	
118	1.180000e+00	1.650344e-04	
119	1.190000e+00	1.668431e-04	
120	1.200000e+00	1.686301e-04	
121	1.210000e+00	1.703957e-04	
122	1.220000e+00	1.721401e-04	
123	1.230000e+00	1.738636e-04	
124	1.240000e+00	1.755664e-04	
125	1.250000e+00	1.772488e-04	
126	1.260000e+00	1.789111e-04	
127	1.270000e+00	1.805535e-04	
128	1.280000e+00	1.821763e-04	
129	1.290000e+00	1.837797e-04	
130	1.300000e+00	1.853640e-04	
131	1.310000e+00	1.869296e-04	
132	1.320000e+00	1.884765e-04	
133	1.330000e+00	1.900051e-04	
134	1.340000e+00	1.915157e-04	
135	1.350000e+00	1.930085e-04	
136	1.360000e+00	1.944837e-04	
137	1.370000e+00	1.959416e-04	
138	1.380000e+00	1.973823e-04	
139	1.390000e+00	1.988063e-04	
140	1.400000e+00	2.002136e-04	
141	1.410000e+00	2.016046e-04	
142	1.420000e+00	2.029794e-04	
143	1.430000e+00	2.043382e-04	
144	1.440000e+00	2.056814e-04	
145	1.450000e+00	2.070090e-04	
146	1.460000e+00	2.083214e-04	
147	1.470000e+00	2.096186e-04	
148	1.480000e+00	2.109010e-04	
149	1.490000e+00	2.121687e-04	
150	1.500000e+00	2.134218e-04	
151	0.000000e+00	2.065527e-12	
152	1.000000e-02	2.751725e-12	
153	2.000000e-02	3.835825e-12	
154	3.000000e-02	5.346726e-12	
155	4.000000e-02	7.452258e-12	
156	5.000000e-02	1.038612e-11	
157	6.000000e-02	1.447365e-11	
158	7.000000e-02	2.016763e-11	
159	8.000000e-02	2.939595e-11	
160	9.000000e-02	4.094675e-11	
161	1.000000e-01	5.702548e-11	
162	1.100000e-01	7.940017e-11	
163	1.200000e-01	1.105248e-10	
164	1.300000e-01	1.538025e-10	
165	1.400000e-01	2.139484e-10	
166	1.500000e-01	2.974877e-10	
167	1.600000e-01	4.134327e-10	
168	1.700000e-01	5.741729e-10	
169	1.800000e-01	7.967707e-10	
170	1.900000e-01	1.104655e-09	

Index   v-sweep         vs#branch       
--------------------------------------------------------------------------------
171	2.000000e-01	1.529908e-09	
172	2.100000e-01	2.116325e-09	
173	2.200000e-01	2.923494e-09	
174	2.300000e-01	4.032165e-09	
175	2.400000e-01	5.551280e-09	
176	2.500000e-01	7.627065e-09	
177	2.600000e-01	1.045465e-08	
178	2.700000e-01	1.429276e-08	
179	2.800000e-01	1.948192e-08	
180	2.900000e-01	2.646679e-08	
181	3.000000e-01	3.582292e-08	
182	3.100000e-01	4.828839e-08	
183	3.200000e-01	6.480030e-08	
184	3.300000e-01	8.653629e-08	
185	3.400000e-01	1.149610e-07	
186	3.500000e-01	1.518778e-07	
187	3.600000e-01	1.994843e-07	
188	3.700000e-01	2.604018e-07	
189	3.800000e-01	3.376975e-07	
190	3.900000e-01	4.350425e-07	
191	4.000000e-01	5.567666e-07	
192	4.100000e-01	7.079415e-07	
193	4.200000e-01	8.944774e-07	
194	4.300000e-01	1.123220e-06	
195	4.400000e-01	1.402039e-06	
196	4.500000e-01	1.739883e-06	
197	4.600000e-01	2.146786e-06	
198	4.700000e-01	2.633791e-06	
199	4.800000e-01	3.212758e-06	
200	4.900000e-01	3.896042e-06	
201	5.000000e-01	4.696027e-06	
202	5.100000e-01	5.624529e-06	
203	5.200000e-01	6.692127e-06	
204	5.300000e-01	7.907490e-06	
205	5.400000e-01	9.276805e-06	
206	5.500000e-01	1.080344e-05	
207	5.600000e-01	1.248799e-05	
208	5.700000e-01	1.432898e-05	
209	5.800000e-01	1.632471e-05	
210	5.900000e-01	1.847540e-05	
211	6.000000e-01	2.077826e-05	
212	6.100000e-01	2.321891e-05	
213	6.200000e-01	2.577786e-05	
214	6.300000e-01	2.843711e-05	
215	6.400000e-01	3.118050e-05	
216	6.500000e-01	3.396094e-05	
217	6.600000e-01	3.683610e-05	
218	6.700000e-01	3.975417e-05	
219	6.800000e-01	4.270408e-05	
220	6.900000e-01	4.567603e-05	
221	7.000000e-01	4.866143e-05	
222	7.100000e-01	5.165288e-05	
223	7.200000e-01	5.464401e-05	
224	7.300000e-01	5.762944e-05	
225	7.400000e-01	6.060466e-05	
226	7.500000e-01	6.356593e-05	
227	7.600000e-01	6.651019e-05	
228	7.700000e-01	6.943498e-05	

Index   v-sweep         vs#branch       
--------------------------------------------------------------------------------
229	7.800000e-01	7.233835e-05	
230	7.900000e-01	7.521880e-05	
231	8.000000e-01	7.807519e-05	
232	8.100000e-01	8.090669e-05	
233	8.200000e-01	8.371268e-05	
234	8.300000e-01	8.649270e-05	
235	8.400000e-01	8.924633e-05	
236	8.500000e-01	9.197312e-05	
237	8.600000e-01	9.467258e-05	
238	8.700000e-01	9.734410e-05	
239	8.800000e-01	9.998703e-05	
240	8.900000e-01	1.026007e-04	
241	9.000000e-01	1.051846e-04	
242	9.100000e-01	1.077380e-04	
243	9.200000e-01	1.102609e-04	
244	9.300000e-01	1.127528e-04	
245	9.400000e-01	1.152137e-04	
246	9.500000e-01	1.176437e-04	
247	9.600000e-01	1.200430e-04	
248	9.700000e-01	1.224117e-04	
249	9.800000e-01	1.247502e-04	
250	9.900000e-01	1.270588e-04	
251	1.000000e+00	1.293378e-04	
252	1.010000e+00	1.315876e-04	
253	1.020000e+00	1.338087e-04	
254	1.030000e+00	1.360014e-04	
255	1.040000e+00	1.381662e-04	
256	1.050000e+00	1.403035e-04	
257	1.060000e+00	1.424137e-04	
258	1.070000e+00	1.444972e-04	
259	1.080000e+00	1.465544e-04	
260	1.090000e+00	1.485858e-04	
261	1.100000e+00	1.505918e-04	
262	1.110000e+00	1.525726e-04	
263	1.120000e+00	1.545289e-04	
264	1.130000e+00	1.564608e-04	
265	1.140000e+00	1.583689e-04	
266	1.150000e+00	1.602534e-04	
267	1.160000e+00	1.621148e-04	
268	1.170000e+00	1.639533e-04	
269	1.180000e+00	1.657694e-04	
270	1.190000e+00	1.675633e-04	
271	1.200000e+00	1.693355e-04	
272	1.210000e+00	1.710862e-04	
273	1.220000e+00	1.728157e-04	
274	1.230000e+00	1.745245e-04	
275	1.240000e+00	1.762126e-04	
276	1.250000e+00	1.778806e-04	
277	1.260000e+00	1.795287e-04	
278	1.270000e+00	1.811571e-04	
279	1.280000e+00	1.827661e-04	
280	1.290000e+00	1.843561e-04	
281	1.300000e+00	1.859273e-04	
282	1.310000e+00	1.874800e-04	
283	1.320000e+00	1.890144e-04	
284	1.330000e+00	1.905308e-04	
285	1.340000e+00	1.920294e-04	
286	1.350000e+00	1.935106e-04	

Index   v-sweep         vs#branch       
--------------------------------------------------------------------------------
287	1.360000e+00	1.949744e-04	
288	1.370000e+00	1.964213e-04	
289	1.380000e+00	1.978514e-04	
290	1.390000e+00	1.992649e-04	
291	1.400000e+00	2.006620e-04	
292	1.410000e+00	2.020431e-04	
293	1.420000e+00	2.034083e-04	
294	1.430000e+00	2.047578e-04	
295	1.440000e+00	2.060919e-04	
296	1.450000e+00	2.074106e-04	
297	1.460000e+00	2.087144e-04	
298	1.470000e+00	2.100033e-04	
299	1.480000e+00	2.112775e-04	
300	1.490000e+00	2.125373e-04	
301	1.500000e+00	2.137828e-04	
302	0.000000e+00	2.066772e-12	
303	1.000000e-02	2.753407e-12	
304	2.000000e-02	3.838216e-12	
305	3.000000e-02	5.350124e-12	
306	4.000000e-02	7.457088e-12	
307	5.000000e-02	1.039299e-11	
308	6.000000e-02	1.448342e-11	
309	7.000000e-02	2.018152e-11	
310	8.000000e-02	2.941671e-11	
311	9.000000e-02	4.097628e-11	
312	1.000000e-01	5.706747e-11	
313	1.100000e-01	7.945989e-11	
314	1.200000e-01	1.106097e-10	
315	1.300000e-01	1.539232e-10	
316	1.400000e-01	2.141201e-10	
317	1.500000e-01	2.977317e-10	
318	1.600000e-01	4.137794e-10	
319	1.700000e-01	5.746652e-10	
320	1.800000e-01	7.974695e-10	
321	1.900000e-01	1.105646e-09	
322	2.000000e-01	1.531312e-09	
323	2.100000e-01	2.118313e-09	
324	2.200000e-01	2.926303e-09	
325	2.300000e-01	4.036131e-09	
326	2.400000e-01	5.556869e-09	
327	2.500000e-01	7.634925e-09	
328	2.600000e-01	1.046568e-08	
329	2.700000e-01	1.430820e-08	
330	2.800000e-01	1.950346e-08	
331	2.900000e-01	2.649674e-08	
332	3.000000e-01	3.586443e-08	
333	3.100000e-01	4.834567e-08	
334	3.200000e-01	6.487844e-08	
335	3.300000e-01	8.662492e-08	
336	3.400000e-01	1.150059e-07	
337	3.500000e-01	1.517738e-07	
338	3.600000e-01	1.990533e-07	
339	3.700000e-01	2.593955e-07	
340	3.800000e-01	3.358387e-07	
341	3.900000e-01	4.319774e-07	
342	4.000000e-01	5.520402e-07	
343	4.100000e-01	7.009767e-07	
344	4.200000e-01	8.845520e-07	

Index   v-sweep         vs#branch       
--------------------------------------------------------------------------------
345	4.300000e-01	1.109443e-06	
346	4.400000e-01	1.383327e-06	
347	4.500000e-01	1.714939e-06	
348	4.600000e-01	2.114095e-06	
349	4.700000e-01	2.591624e-06	
350	4.800000e-01	3.159216e-06	
351	4.900000e-01	3.829144e-06	
352	5.000000e-01	4.613877e-06	
353	5.100000e-01	5.525622e-06	
354	5.200000e-01	6.575919e-06	
355	5.300000e-01	7.775580e-06	
356	5.400000e-01	9.135477e-06	
357	5.500000e-01	1.066724e-05	
358	5.600000e-01	1.237822e-05	
359	5.700000e-01	1.426579e-05	
360	5.800000e-01	1.632211e-05	
361	5.900000e-01	1.853797e-05	
362	6.000000e-01	2.090342e-05	
363	6.100000e-01	2.340782e-05	
364	6.200000e-01	2.603975e-05	
365	6.300000e-01	2.878602e-05	
366	6.400000e-01	3.163063e-05	
367	6.500000e-01	3.455495e-05	
368	6.600000e-01	3.751266e-05	
369	6.700000e-01	4.054886e-05	
370	6.800000e-01	4.361170e-05	
371	6.900000e-01	4.668901e-05	
372	7.000000e-01	4.977105e-05	
373	7.100000e-01	5.284994e-05	
374	7.200000e-01	5.591929e-05	
375	7.300000e-01	5.897391e-05	
376	7.400000e-01	6.200960e-05	
377	7.500000e-01	6.502294e-05	
378	7.600000e-01	6.801124e-05	
379	7.700000e-01	7.097232e-05	
380	7.800000e-01	7.390449e-05	
381	7.900000e-01	7.680645e-05	
382	8.000000e-01	7.967720e-05	
383	8.100000e-01	8.251604e-05	
384	8.200000e-01	8.532245e-05	
385	8.300000e-01	8.809611e-05	
386	8.400000e-01	9.083686e-05	
387	8.500000e-01	9.354464e-05	
388	8.600000e-01	9.621949e-05	
389	8.700000e-01	9.886155e-05	
390	8.800000e-01	1.014710e-04	
391	8.900000e-01	1.040481e-04	
392	9.000000e-01	1.065931e-04	
393	9.100000e-01	1.091063e-04	
394	9.200000e-01	1.115882e-04	
395	9.300000e-01	1.140390e-04	
396	9.400000e-01	1.164591e-04	
397	9.500000e-01	1.188489e-04	
398	9.600000e-01	1.212088e-04	
399	9.700000e-01	1.235392e-04	
400	9.800000e-01	1.258405e-04	
401	9.900000e-01	1.281132e-04	
402	1.000000e+00	1.303575e-04	

Index   v-sweep         vs#branch       
--------------------------------------------------------------------------------
403	1.010000e+00	1.325740e-04	
404	1.020000e+00	1.347629e-04	
405	1.030000e+00	1.369248e-04	
406	1.040000e+00	1.390600e-04	
407	1.050000e+00	1.411688e-04	
408	1.060000e+00	1.432517e-04	
409	1.070000e+00	1.453091e-04	
410	1.080000e+00	1.473412e-04	
411	1.090000e+00	1.493486e-04	
412	1.100000e+00	1.513314e-04	
413	1.110000e+00	1.532902e-04	
414	1.120000e+00	1.552252e-04	
415	1.130000e+00	1.571367e-04	
416	1.140000e+00	1.590252e-04	
417	1.150000e+00	1.608909e-04	
418	1.160000e+00	1.627342e-04	
419	1.170000e+00	1.645554e-04	
420	1.180000e+00	1.663548e-04	
421	1.190000e+00	1.681327e-04	
422	1.200000e+00	1.698894e-04	
423	1.210000e+00	1.716252e-04	
424	1.220000e+00	1.733405e-04	
425	1.230000e+00	1.750354e-04	
426	1.240000e+00	1.767104e-04	
427	1.250000e+00	1.783655e-04	
428	1.260000e+00	1.800013e-04	
429	1.270000e+00	1.816178e-04	
430	1.280000e+00	1.832154e-04	
431	1.290000e+00	1.847943e-04	
432	1.300000e+00	1.863549e-04	
433	1.310000e+00	1.878972e-04	
434	1.320000e+00	1.894216e-04	
435	1.330000e+00	1.909284e-04	
436	1.340000e+00	1.924177e-04	
437	1.350000e+00	1.938899e-04	
438	1.360000e+00	1.953451e-04	
439	1.370000e+00	1.967835e-04	
440	1.380000e+00	1.982054e-04	
441	1.390000e+00	1.996110e-04	
442	1.400000e+00	2.010006e-04	
443	1.410000e+00	2.023742e-04	
444	1.420000e+00	2.037322e-04	
445	1.430000e+00	2.050748e-04	
446	1.440000e+00	2.064021e-04	
447	1.450000e+00	2.077143e-04	
448	1.460000e+00	2.090117e-04	
449	1.470000e+00	2.102945e-04	
450	1.480000e+00	2.115627e-04	
451	1.490000e+00	2.128167e-04	
452	1.500000e+00	2.140566e-04	
453	0.000000e+00	2.072522e-12	
454	1.000000e-02	2.761350e-12	
455	2.000000e-02	3.849869e-12	
456	3.000000e-02	5.367250e-12	
457	4.000000e-02	7.482301e-12	
458	5.000000e-02	1.043018e-11	
459	6.000000e-02	1.453840e-11	
460	7.000000e-02	2.026299e-11	

Index   v-sweep         vs#branch       
--------------------------------------------------------------------------------
461	8.000000e-02	2.954567e-11	
462	9.000000e-02	4.116854e-11	
463	1.000000e-01	5.735505e-11	
464	1.100000e-01	7.989155e-11	
465	1.200000e-01	1.112602e-10	
466	1.300000e-01	1.549081e-10	
467	1.400000e-01	2.156189e-10	
468	1.500000e-01	3.000266e-10	
469	1.600000e-01	4.173183e-10	
470	1.700000e-01	5.801683e-10	
471	1.800000e-01	8.061148e-10	
472	1.900000e-01	1.119402e-09	
473	2.000000e-01	1.553552e-09	
474	2.100000e-01	2.155020e-09	
475	2.200000e-01	2.988527e-09	
476	2.300000e-01	4.145176e-09	
477	2.400000e-01	5.755065e-09	
478	2.500000e-01	8.004832e-09	
479	2.600000e-01	1.115475e-08	
480	2.700000e-01	1.555195e-08	
481	2.800000e-01	2.165279e-08	
482	2.900000e-01	3.005843e-08	
483	3.000000e-01	4.155874e-08	
484	3.100000e-01	5.719560e-08	
485	3.200000e-01	7.831618e-08	
486	3.300000e-01	1.066349e-07	
487	3.400000e-01	1.443092e-07	
488	3.500000e-01	1.940253e-07	
489	3.600000e-01	2.590932e-07	
490	3.700000e-01	3.435517e-07	
491	3.800000e-01	4.522870e-07	
492	3.900000e-01	5.911651e-07	
493	4.000000e-01	7.671765e-07	
494	4.100000e-01	9.885874e-07	
495	4.200000e-01	1.265079e-06	
496	4.300000e-01	1.607851e-06	
497	4.400000e-01	2.029632e-06	
498	4.500000e-01	2.544561e-06	
499	4.600000e-01	3.167847e-06	
500	4.700000e-01	3.915125e-06	
501	4.800000e-01	4.801366e-06	
502	4.900000e-01	5.839018e-06	
503	5.000000e-01	7.034884e-06	
504	5.100000e-01	8.388099e-06	
505	5.200000e-01	9.897562e-06	
506	5.300000e-01	1.156778e-05	
507	5.400000e-01	1.340158e-05	
508	5.500000e-01	1.539660e-05	
509	5.600000e-01	1.754618e-05	
510	5.700000e-01	1.984048e-05	
511	5.800000e-01	2.226739e-05	
512	5.900000e-01	2.481331e-05	
513	6.000000e-01	2.746386e-05	
514	6.100000e-01	3.020442e-05	
515	6.200000e-01	3.302065e-05	
516	6.300000e-01	3.587008e-05	
517	6.400000e-01	3.880365e-05	
518	6.500000e-01	4.177408e-05	

Index   v-sweep         vs#branch       
--------------------------------------------------------------------------------
519	6.600000e-01	4.477071e-05	
520	6.700000e-01	4.778414e-05	
521	6.800000e-01	5.080610e-05	
522	6.900000e-01	5.382945e-05	
523	7.000000e-01	5.684803e-05	
524	7.100000e-01	5.985665e-05	
525	7.200000e-01	6.285092e-05	
526	7.300000e-01	6.582715e-05	
527	7.400000e-01	6.878233e-05	
528	7.500000e-01	7.171395e-05	
529	7.600000e-01	7.462001e-05	
530	7.700000e-01	7.749888e-05	
531	7.800000e-01	8.034929e-05	
532	7.900000e-01	8.317024e-05	
533	8.000000e-01	8.596098e-05	
534	8.100000e-01	8.872098e-05	
535	8.200000e-01	9.144984e-05	
536	8.300000e-01	9.414734e-05	
537	8.400000e-01	9.681336e-05	
538	8.500000e-01	9.944787e-05	
539	8.600000e-01	1.020509e-04	
540	8.700000e-01	1.046227e-04	
541	8.800000e-01	1.071633e-04	
542	8.900000e-01	1.096729e-04	
543	9.000000e-01	1.121520e-04	
544	9.100000e-01	1.146006e-04	
545	9.200000e-01	1.170191e-04	
546	9.300000e-01	1.194079e-04	
547	9.400000e-01	1.217673e-04	
548	9.500000e-01	1.240976e-04	
549	9.600000e-01	1.263993e-04	
550	9.700000e-01	1.286725e-04	
551	9.800000e-01	1.309178e-04	
552	9.900000e-01	1.331355e-04	
553	1.000000e+00	1.353260e-04	
554	1.010000e+00	1.374895e-04	
555	1.020000e+00	1.396266e-04	
556	1.030000e+00	1.417375e-04	
557	1.040000e+00	1.438226e-04	
558	1.050000e+00	1.458823e-04	
559	1.060000e+00	1.479169e-04	
560	1.070000e+00	1.499268e-04	
561	1.080000e+00	1.519123e-04	
562	1.090000e+00	1.538737e-04	
563	1.100000e+00	1.558114e-04	
564	1.110000e+00	1.577258e-04	
565	1.120000e+00	1.596171e-04	
566	1.130000e+00	1.614857e-04	
567	1.140000e+00	1.633319e-04	
568	1.150000e+00	1.651560e-04	
569	1.160000e+00	1.669583e-04	
570	1.170000e+00	1.687391e-04	
571	1.180000e+00	1.704987e-04	
572	1.190000e+00	1.722375e-04	
573	1.200000e+00	1.739556e-04	
574	1.210000e+00	1.756534e-04	
575	1.220000e+00	1.773312e-04	
576	1.230000e+00	1.789892e-04	

Index   v-sweep         vs#branch       
--------------------------------------------------------------------------------
577	1.240000e+00	1.806277e-04	
578	1.250000e+00	1.822470e-04	
579	1.260000e+00	1.838473e-04	
580	1.270000e+00	1.854289e-04	
581	1.280000e+00	1.869921e-04	
582	1.290000e+00	1.885371e-04	
583	1.300000e+00	1.900641e-04	
584	1.310000e+00	1.915734e-04	
585	1.320000e+00	1.930652e-04	
586	1.330000e+00	1.945398e-04	
587	1.340000e+00	1.959973e-04	
588	1.350000e+00	1.974381e-04	
589	1.360000e+00	1.988623e-04	
590	1.370000e+00	2.002702e-04	
591	1.380000e+00	2.016619e-04	
592	1.390000e+00	2.030378e-04	
593	1.400000e+00	2.043979e-04	
594	1.410000e+00	2.057425e-04	
595	1.420000e+00	2.070718e-04	
596	1.430000e+00	2.083860e-04	
597	1.440000e+00	2.096854e-04	
598	1.450000e+00	2.109700e-04	
599	1.460000e+00	2.122400e-04	
600	1.470000e+00	2.134958e-04	
601	1.480000e+00	2.147374e-04	
602	1.490000e+00	2.159650e-04	
603	1.500000e+00	2.171788e-04	
604	0.000000e+00	4.149697e-12	
605	1.000000e-02	5.650698e-12	
606	2.000000e-02	8.111478e-12	
607	3.000000e-02	1.164165e-11	
608	4.000000e-02	1.670464e-11	
609	5.000000e-02	2.525906e-11	
610	6.000000e-02	3.622354e-11	
611	7.000000e-02	5.193193e-11	
612	8.000000e-02	7.442713e-11	
613	9.000000e-02	1.066257e-10	
614	1.000000e-01	1.526874e-10	
615	1.100000e-01	2.185387e-10	
616	1.200000e-01	3.126114e-10	
617	1.300000e-01	4.468842e-10	
618	1.400000e-01	6.383434e-10	
619	1.500000e-01	9.110261e-10	
620	1.600000e-01	1.298843e-09	
621	1.700000e-01	1.849360e-09	
622	1.800000e-01	2.629285e-09	
623	1.900000e-01	3.731735e-09	
624	2.000000e-01	5.286071e-09	
625	2.100000e-01	7.471051e-09	
626	2.200000e-01	1.053220e-08	
627	2.300000e-01	1.480442e-08	
628	2.400000e-01	2.074103e-08	
629	2.500000e-01	2.895034e-08	
630	2.600000e-01	4.024094e-08	
631	2.700000e-01	5.567669e-08	
632	2.800000e-01	7.664210e-08	
633	2.900000e-01	1.049187e-07	
634	3.000000e-01	1.427730e-07	

Index   v-sweep         vs#branch       
--------------------------------------------------------------------------------
635	3.100000e-01	1.930558e-07	
636	3.200000e-01	2.593155e-07	
637	3.300000e-01	3.459256e-07	
638	3.400000e-01	4.582287e-07	
639	3.500000e-01	6.027000e-07	
640	3.600000e-01	7.871250e-07	
641	3.700000e-01	1.020785e-06	
642	3.800000e-01	1.314626e-06	
643	3.900000e-01	1.681377e-06	
644	4.000000e-01	2.135546e-06	
645	4.100000e-01	2.693225e-06	
646	4.200000e-01	3.371579e-06	
647	4.300000e-01	4.187855e-06	
648	4.400000e-01	5.157563e-06	
649	4.500000e-01	6.291041e-06	
650	4.600000e-01	7.587978e-06	
651	4.700000e-01	9.038489e-06	
652	4.800000e-01	1.064051e-05	
653	4.900000e-01	1.240101e-05	
654	5.000000e-01	1.432317e-05	
655	5.100000e-01	1.640407e-05	
656	5.200000e-01	1.863631e-05	
657	5.300000e-01	2.100939e-05	
658	5.400000e-01	2.351072e-05	
659	5.500000e-01	2.612645e-05	
660	5.600000e-01	2.884208e-05	
661	5.700000e-01	3.164308e-05	
662	5.800000e-01	3.448199e-05	
663	5.900000e-01	3.741853e-05	
664	6.000000e-01	4.039983e-05	
665	6.100000e-01	4.341442e-05	
666	6.200000e-01	4.645201e-05	
667	6.300000e-01	4.950350e-05	
668	6.400000e-01	5.256093e-05	
669	6.500000e-01	5.561744e-05	
670	6.600000e-01	5.866712e-05	
671	6.700000e-01	6.170498e-05	
672	6.800000e-01	6.472682e-05	
673	6.900000e-01	6.772912e-05	
674	7.000000e-01	7.070900e-05	
675	7.100000e-01	7.366409e-05	
676	7.200000e-01	7.659246e-05	
677	7.300000e-01	7.949259e-05	
678	7.400000e-01	8.236328e-05	
679	7.500000e-01	8.520360e-05	
680	7.600000e-01	8.801287e-05	
681	7.700000e-01	9.079057e-05	
682	7.800000e-01	9.353640e-05	
683	7.900000e-01	9.625014e-05	
684	8.000000e-01	9.893171e-05	
685	8.100000e-01	1.015811e-04	
686	8.200000e-01	1.041985e-04	
687	8.300000e-01	1.067839e-04	
688	8.400000e-01	1.093376e-04	
689	8.500000e-01	1.118599e-04	
690	8.600000e-01	1.143509e-04	
691	8.700000e-01	1.168111e-04	
692	8.800000e-01	1.192407e-04	

Index   v-sweep         vs#branch       
--------------------------------------------------------------------------------
693	8.900000e-01	1.216401e-04	
694	9.000000e-01	1.240096e-04	
695	9.100000e-01	1.263496e-04	
696	9.200000e-01	1.286605e-04	
697	9.300000e-01	1.309426e-04	
698	9.400000e-01	1.331963e-04	
699	9.500000e-01	1.354221e-04	
700	9.600000e-01	1.376202e-04	
701	9.700000e-01	1.397911e-04	
702	9.800000e-01	1.419351e-04	
703	9.900000e-01	1.440526e-04	
704	1.000000e+00	1.461440e-04	
705	1.010000e+00	1.482097e-04	
706	1.020000e+00	1.502499e-04	
707	1.030000e+00	1.522651e-04	
708	1.040000e+00	1.542557e-04	
709	1.050000e+00	1.562219e-04	
710	1.060000e+00	1.581641e-04	
711	1.070000e+00	1.600827e-04	
712	1.080000e+00	1.619780e-04	
713	1.090000e+00	1.638502e-04	
714	1.100000e+00	1.656999e-04	
715	1.110000e+00	1.675272e-04	
716	1.120000e+00	1.693324e-04	
717	1.130000e+00	1.711160e-04	
718	1.140000e+00	1.728781e-04	
719	1.150000e+00	1.746192e-04	
720	1.160000e+00	1.763394e-04	
721	1.170000e+00	1.780391e-04	
722	1.180000e+00	1.797186e-04	
723	1.190000e+00	1.813781e-04	
724	1.200000e+00	1.830179e-04	
725	1.210000e+00	1.846383e-04	
726	1.220000e+00	1.862396e-04	
727	1.230000e+00	1.878220e-04	
728	1.240000e+00	1.893858e-04	
729	1.250000e+00	1.909312e-04	
730	1.260000e+00	1.924585e-04	
731	1.270000e+00	1.939679e-04	
732	1.280000e+00	1.954598e-04	
733	1.290000e+00	1.969342e-04	
734	1.300000e+00	1.983914e-04	
735	1.310000e+00	1.998318e-04	
736	1.320000e+00	2.012554e-04	
737	1.330000e+00	2.026626e-04	
738	1.340000e+00	2.040535e-04	
739	1.350000e+00	2.054283e-04	
740	1.360000e+00	2.067873e-04	
741	1.370000e+00	2.081308e-04	
742	1.380000e+00	2.094588e-04	
743	1.390000e+00	2.107716e-04	
744	1.400000e+00	2.120693e-04	
745	1.410000e+00	2.133523e-04	
746	1.420000e+00	2.146206e-04	
747	1.430000e+00	2.158745e-04	
748	1.440000e+00	2.171142e-04	
749	1.450000e+00	2.183397e-04	
750	1.460000e+00	2.195514e-04	

Index   v-sweep         vs#branch       
--------------------------------------------------------------------------------
751	1.470000e+00	2.207494e-04	
752	1.480000e+00	2.219339e-04	
753	1.490000e+00	2.231050e-04	
754	1.500000e+00	2.242629e-04	
755	0.000000e+00	2.039674e-11	
756	1.000000e-02	2.936285e-11	
757	2.000000e-02	4.225803e-11	
758	3.000000e-02	6.079651e-11	
759	4.000000e-02	8.743568e-11	
760	5.000000e-02	1.256951e-10	
761	6.000000e-02	1.806104e-10	
762	7.000000e-02	2.593780e-10	
763	8.000000e-02	3.722671e-10	
764	9.000000e-02	5.339088e-10	
765	1.000000e-01	7.651084e-10	
766	1.100000e-01	1.095385e-09	
767	1.200000e-01	1.566511e-09	
768	1.300000e-01	2.237422e-09	
769	1.400000e-01	3.190971e-09	
770	1.500000e-01	4.543156e-09	
771	1.600000e-01	6.455517e-09	
772	1.700000e-01	9.151132e-09	
773	1.800000e-01	1.293714e-08	
774	1.900000e-01	1.823313e-08	
775	2.000000e-01	2.560762e-08	
776	2.100000e-01	3.582410e-08	
777	2.200000e-01	4.989798e-08	
778	2.300000e-01	6.916574e-08	
779	2.400000e-01	9.536735e-08	
780	2.500000e-01	1.307429e-07	
781	2.600000e-01	1.781442e-07	
782	2.700000e-01	2.411632e-07	
783	2.800000e-01	3.242784e-07	
784	2.900000e-01	4.330219e-07	
785	3.000000e-01	5.741683e-07	
786	3.100000e-01	7.559600e-07	
787	3.200000e-01	9.884636e-07	
788	3.300000e-01	1.283590e-06	
789	3.400000e-01	1.655271e-06	
790	3.500000e-01	2.119490e-06	
791	3.600000e-01	2.694047e-06	
792	3.700000e-01	3.397920e-06	
793	3.800000e-01	4.250005e-06	
794	3.900000e-01	5.266717e-06	
795	4.000000e-01	6.457328e-06	
796	4.100000e-01	7.816460e-06	
797	4.200000e-01	9.326264e-06	
798	4.300000e-01	1.098167e-05	
799	4.400000e-01	1.279167e-05	
800	4.500000e-01	1.476130e-05	
801	4.600000e-01	1.688842e-05	
802	4.700000e-01	1.916588e-05	
803	4.800000e-01	2.158327e-05	
804	4.900000e-01	2.412806e-05	
805	5.000000e-01	2.678642e-05	
806	5.100000e-01	2.954396e-05	
807	5.200000e-01	3.238621e-05	
808	5.300000e-01	3.526608e-05	

Index   v-sweep         vs#branch       
--------------------------------------------------------------------------------
809	5.400000e-01	3.824278e-05	
810	5.500000e-01	4.126380e-05	
811	5.600000e-01	4.431773e-05	
812	5.700000e-01	4.739428e-05	
813	5.800000e-01	5.048437e-05	
814	5.900000e-01	5.358002e-05	
815	6.000000e-01	5.667433e-05	
816	6.100000e-01	5.976137e-05	
817	6.200000e-01	6.283612e-05	
818	6.300000e-01	6.589432e-05	
819	6.400000e-01	6.893244e-05	
820	6.500000e-01	7.194754e-05	
821	6.600000e-01	7.493723e-05	
822	6.700000e-01	7.789956e-05	
823	6.800000e-01	8.083298e-05	
824	6.900000e-01	8.373627e-05	
825	7.000000e-01	8.660850e-05	
826	7.100000e-01	8.944896e-05	
827	7.200000e-01	9.225715e-05	
828	7.300000e-01	9.503273e-05	
829	7.400000e-01	9.777552e-05	
830	7.500000e-01	1.004854e-04	
831	7.600000e-01	1.031625e-04	
832	7.700000e-01	1.058068e-04	
833	7.800000e-01	1.084185e-04	
834	7.900000e-01	1.109977e-04	
835	8.000000e-01	1.135449e-04	
836	8.100000e-01	1.160602e-04	
837	8.200000e-01	1.185440e-04	
838	8.300000e-01	1.209965e-04	
839	8.400000e-01	1.234183e-04	
840	8.500000e-01	1.258095e-04	
841	8.600000e-01	1.281707e-04	
842	8.700000e-01	1.305022e-04	
843	8.800000e-01	1.328043e-04	
844	8.900000e-01	1.350776e-04	
845	9.000000e-01	1.373222e-04	
846	9.100000e-01	1.395388e-04	
847	9.200000e-01	1.417276e-04	
848	9.300000e-01	1.438890e-04	
849	9.400000e-01	1.460235e-04	
850	9.500000e-01	1.481313e-04	
851	9.600000e-01	1.502130e-04	
852	9.700000e-01	1.522688e-04	
853	9.800000e-01	1.542991e-04	
854	9.900000e-01	1.563043e-04	
855	1.000000e+00	1.582848e-04	
856	1.010000e+00	1.602408e-04	
857	1.020000e+00	1.621729e-04	
858	1.030000e+00	1.640812e-04	
859	1.040000e+00	1.659661e-04	
860	1.050000e+00	1.678281e-04	
861	1.060000e+00	1.696673e-04	
862	1.070000e+00	1.714842e-04	
863	1.080000e+00	1.732790e-04	
864	1.090000e+00	1.750520e-04	
865	1.100000e+00	1.768036e-04	
866	1.110000e+00	1.785341e-04	

Index   v-sweep         vs#branch       
--------------------------------------------------------------------------------
867	1.120000e+00	1.802438e-04	
868	1.130000e+00	1.819329e-04	
869	1.140000e+00	1.836017e-04	
870	1.150000e+00	1.852506e-04	
871	1.160000e+00	1.868797e-04	
872	1.170000e+00	1.884895e-04	
873	1.180000e+00	1.900801e-04	
874	1.190000e+00	1.916518e-04	
875	1.200000e+00	1.932049e-04	
876	1.210000e+00	1.947396e-04	
877	1.220000e+00	1.962562e-04	
878	1.230000e+00	1.977549e-04	
879	1.240000e+00	1.992360e-04	
880	1.250000e+00	2.006997e-04	
881	1.260000e+00	2.021463e-04	
882	1.270000e+00	2.035759e-04	
883	1.280000e+00	2.049889e-04	
884	1.290000e+00	2.063853e-04	
885	1.300000e+00	2.077656e-04	
886	1.310000e+00	2.091298e-04	
887	1.320000e+00	2.104781e-04	
888	1.330000e+00	2.118109e-04	
889	1.340000e+00	2.131283e-04	
890	1.350000e+00	2.144304e-04	
891	1.360000e+00	2.157176e-04	
892	1.370000e+00	2.169899e-04	
893	1.380000e+00	2.182477e-04	
894	1.390000e+00	2.194910e-04	
895	1.400000e+00	2.207201e-04	
896	1.410000e+00	2.219352e-04	
897	1.420000e+00	2.231364e-04	
898	1.430000e+00	2.243239e-04	
899	1.440000e+00	2.254978e-04	
900	1.450000e+00	2.266585e-04	
901	1.460000e+00	2.278060e-04	
902	1.470000e+00	2.289404e-04	
903	1.480000e+00	2.300621e-04	
904	1.490000e+00	2.311710e-04	
905	1.500000e+00	2.322675e-04	
906	0.000000e+00	1.468737e-10	
907	1.000000e-02	2.126740e-10	
908	2.000000e-02	3.077418e-10	
909	3.000000e-02	4.449567e-10	
910	4.000000e-02	6.427766e-10	
911	5.000000e-02	9.275941e-10	
912	6.000000e-02	1.337051e-09	
913	7.000000e-02	1.924673e-09	
914	8.000000e-02	2.766314e-09	
915	9.000000e-02	3.969041e-09	
916	1.000000e-01	5.683300e-09	
917	1.100000e-01	8.119385e-09	
918	1.200000e-01	1.156952e-08	
919	1.300000e-01	1.643703e-08	
920	1.400000e-01	2.327445e-08	
921	1.500000e-01	3.283237e-08	
922	1.600000e-01	4.612049e-08	
923	1.700000e-01	6.447923e-08	
924	1.800000e-01	8.967626e-08	

Index   v-sweep         vs#branch       
--------------------------------------------------------------------------------
925	1.900000e-01	1.240158e-07	
926	2.000000e-01	1.704680e-07	
927	2.100000e-01	2.328208e-07	
928	2.200000e-01	3.158556e-07	
929	2.300000e-01	4.255513e-07	
930	2.400000e-01	5.693147e-07	
931	2.500000e-01	7.562375e-07	
932	2.600000e-01	9.973625e-07	
933	2.700000e-01	1.305927e-06	
934	2.800000e-01	1.697521e-06	
935	2.900000e-01	2.190055e-06	
936	3.000000e-01	2.803399e-06	
937	3.100000e-01	3.558467e-06	
938	3.200000e-01	4.475389e-06	
939	3.300000e-01	5.569931e-06	
940	3.400000e-01	6.846410e-06	
941	3.500000e-01	8.288679e-06	
942	3.600000e-01	9.872788e-06	
943	3.700000e-01	1.159878e-05	
944	3.800000e-01	1.347855e-05	
945	3.900000e-01	1.551694e-05	
946	4.000000e-01	1.771117e-05	
947	4.100000e-01	2.005365e-05	
948	4.200000e-01	2.253366e-05	
949	4.300000e-01	2.513854e-05	
950	4.400000e-01	2.785449e-05	
951	4.500000e-01	3.066722e-05	
952	4.600000e-01	3.356246e-05	
953	4.700000e-01	3.649428e-05	
954	4.800000e-01	3.952011e-05	
955	4.900000e-01	4.258872e-05	
956	5.000000e-01	4.568887e-05	
957	5.100000e-01	4.881048e-05	
958	5.200000e-01	5.194455e-05	
959	5.300000e-01	5.508323e-05	
960	5.400000e-01	5.821966e-05	
961	5.500000e-01	6.134798e-05	
962	5.600000e-01	6.446317e-05	
963	5.700000e-01	6.756101e-05	
964	5.800000e-01	7.063796e-05	
965	5.900000e-01	7.369109e-05	
966	6.000000e-01	7.671800e-05	
967	6.100000e-01	7.971673e-05	
968	6.200000e-01	8.268574e-05	
969	6.300000e-01	8.562380e-05	
970	6.400000e-01	8.852997e-05	
971	6.500000e-01	9.140355e-05	
972	6.600000e-01	9.424405e-05	
973	6.700000e-01	9.705114e-05	
974	6.800000e-01	9.982463e-05	
975	6.900000e-01	1.025645e-04	
976	7.000000e-01	1.052706e-04	
977	7.100000e-01	1.079433e-04	
978	7.200000e-01	1.105826e-04	
979	7.300000e-01	1.131887e-04	
980	7.400000e-01	1.157620e-04	
981	7.500000e-01	1.183028e-04	
982	7.600000e-01	1.208113e-04	

Index   v-sweep         vs#branch       
--------------------------------------------------------------------------------
983	7.700000e-01	1.232879e-04	
984	7.800000e-01	1.257331e-04	
985	7.900000e-01	1.281471e-04	
986	8.000000e-01	1.305304e-04	
987	8.100000e-01	1.328834e-04	
988	8.200000e-01	1.352065e-04	
989	8.300000e-01	1.375001e-04	
990	8.400000e-01	1.397646e-04	
991	8.500000e-01	1.420004e-04	
992	8.600000e-01	1.442079e-04	
993	8.700000e-01	1.463876e-04	
994	8.800000e-01	1.485397e-04	
995	8.900000e-01	1.506648e-04	
996	9.000000e-01	1.527631e-04	
997	9.100000e-01	1.548352e-04	
998	9.200000e-01	1.568813e-04	
999	9.300000e-01	1.589018e-04	
1000	9.400000e-01	1.608972e-04	
1001	9.500000e-01	1.628678e-04	
1002	9.600000e-01	1.648139e-04	
1003	9.700000e-01	1.667359e-04	
1004	9.800000e-01	1.686341e-04	
1005	9.900000e-01	1.705089e-04	
1006	1.000000e+00	1.723607e-04	
1007	1.010000e+00	1.741897e-04	
1008	1.020000e+00	1.759963e-04	
1009	1.030000e+00	1.777808e-04	
1010	1.040000e+00	1.795435e-04	
1011	1.050000e+00	1.812848e-04	
1012	1.060000e+00	1.830049e-04	
1013	1.070000e+00	1.847041e-04	
1014	1.080000e+00	1.863828e-04	
1015	1.090000e+00	1.880412e-04	
1016	1.100000e+00	1.896796e-04	
1017	1.110000e+00	1.912983e-04	
1018	1.120000e+00	1.928975e-04	
1019	1.130000e+00	1.944776e-04	
1020	1.140000e+00	1.960388e-04	
1021	1.150000e+00	1.975814e-04	
1022	1.160000e+00	1.991056e-04	
1023	1.170000e+00	2.006116e-04	
1024	1.180000e+00	2.020998e-04	
1025	1.190000e+00	2.035704e-04	
1026	1.200000e+00	2.050236e-04	
1027	1.210000e+00	2.064596e-04	
1028	1.220000e+00	2.078787e-04	
1029	1.230000e+00	2.092811e-04	
1030	1.240000e+00	2.106670e-04	
1031	1.250000e+00	2.120367e-04	
1032	1.260000e+00	2.133904e-04	
1033	1.270000e+00	2.147283e-04	
1034	1.280000e+00	2.160506e-04	
1035	1.290000e+00	2.173574e-04	
1036	1.300000e+00	2.186491e-04	
1037	1.310000e+00	2.199258e-04	
1038	1.320000e+00	2.211877e-04	
1039	1.330000e+00	2.224350e-04	
1040	1.340000e+00	2.236679e-04	

Index   v-sweep         vs#branch       
--------------------------------------------------------------------------------
1041	1.350000e+00	2.248866e-04	
1042	1.360000e+00	2.260913e-04	
1043	1.370000e+00	2.272821e-04	
1044	1.380000e+00	2.284592e-04	
1045	1.390000e+00	2.296228e-04	
1046	1.400000e+00	2.307731e-04	
1047	1.410000e+00	2.319103e-04	
1048	1.420000e+00	2.330345e-04	
1049	1.430000e+00	2.341458e-04	
1050	1.440000e+00	2.352445e-04	
1051	1.450000e+00	2.363307e-04	
1052	1.460000e+00	2.374046e-04	
1053	1.470000e+00	2.384663e-04	
1054	1.480000e+00	2.395159e-04	
1055	1.490000e+00	2.405537e-04	
1056	1.500000e+00	2.415798e-04	
1057	0.000000e+00	1.491864e-09	
1058	1.000000e-02	2.158102e-09	
1059	2.000000e-02	3.116114e-09	
1060	3.000000e-02	4.490120e-09	
1061	4.000000e-02	6.455027e-09	
1062	5.000000e-02	9.255779e-09	
1063	6.000000e-02	1.323331e-08	
1064	7.000000e-02	1.885894e-08	
1065	8.000000e-02	2.677935e-08	
1066	9.000000e-02	3.787446e-08	
1067	1.000000e-01	5.333102e-08	
1068	1.100000e-01	7.473436e-08	
1069	1.200000e-01	1.041815e-07	
1070	1.300000e-01	1.444187e-07	
1071	1.400000e-01	1.990065e-07	
1072	1.500000e-01	2.725171e-07	
1073	1.600000e-01	3.707627e-07	
1074	1.700000e-01	5.010355e-07	
1075	1.800000e-01	6.724479e-07	
1076	1.900000e-01	8.962557e-07	
1077	2.000000e-01	1.186173e-06	
1078	2.100000e-01	1.558611e-06	
1079	2.200000e-01	2.032706e-06	
1080	2.300000e-01	2.629957e-06	
1081	2.400000e-01	3.373140e-06	
1082	2.500000e-01	4.283943e-06	
1083	2.600000e-01	5.378000e-06	
1084	2.700000e-01	6.654960e-06	
1085	2.800000e-01	8.089410e-06	
1086	2.900000e-01	9.656277e-06	
1087	3.000000e-01	1.136243e-05	
1088	3.100000e-01	1.322275e-05	
1089	3.200000e-01	1.524300e-05	
1090	3.300000e-01	1.742118e-05	
1091	3.400000e-01	1.975043e-05	
1092	3.500000e-01	2.222073e-05	
1093	3.600000e-01	2.482002e-05	
1094	3.700000e-01	2.753496e-05	
1095	3.800000e-01	3.035163e-05	
1096	3.900000e-01	3.325593e-05	
1097	4.000000e-01	3.619941e-05	
1098	4.100000e-01	3.924462e-05	

Index   v-sweep         vs#branch       
--------------------------------------------------------------------------------
1099	4.200000e-01	4.233757e-05	
1100	4.300000e-01	4.546668e-05	
1101	4.400000e-01	4.862146e-05	
1102	4.500000e-01	5.179251e-05	
1103	4.600000e-01	5.497146e-05	
1104	4.700000e-01	5.815102e-05	
1105	4.800000e-01	6.132482e-05	
1106	4.900000e-01	6.448742e-05	
1107	5.000000e-01	6.763417e-05	
1108	5.100000e-01	7.076113e-05	
1109	5.200000e-01	7.386504e-05	
1110	5.300000e-01	7.694318e-05	
1111	5.400000e-01	7.999334e-05	
1112	5.500000e-01	8.301372e-05	
1113	5.600000e-01	8.600292e-05	
1114	5.700000e-01	8.895981e-05	
1115	5.800000e-01	9.188357e-05	
1116	5.900000e-01	9.477359e-05	
1117	6.000000e-01	9.762944e-05	
1118	6.100000e-01	1.004509e-04	
1119	6.200000e-01	1.032378e-04	
1120	6.300000e-01	1.059901e-04	
1121	6.400000e-01	1.087080e-04	
1122	6.500000e-01	1.113915e-04	
1123	6.600000e-01	1.140410e-04	
1124	6.700000e-01	1.166566e-04	
1125	6.800000e-01	1.192387e-04	
1126	6.900000e-01	1.217877e-04	
1127	7.000000e-01	1.243038e-04	
1128	7.100000e-01	1.267875e-04	
1129	7.200000e-01	1.292391e-04	
1130	7.300000e-01	1.316592e-04	
1131	7.400000e-01	1.340481e-04	
1132	7.500000e-01	1.364062e-04	
1133	7.600000e-01	1.387339e-04	
1134	7.700000e-01	1.410318e-04	
1135	7.800000e-01	1.433002e-04	
1136	7.900000e-01	1.455395e-04	
1137	8.000000e-01	1.477502e-04	
1138	8.100000e-01	1.499326e-04	
1139	8.200000e-01	1.520873e-04	
1140	8.300000e-01	1.542146e-04	
1141	8.400000e-01	1.563148e-04	
1142	8.500000e-01	1.583885e-04	
1143	8.600000e-01	1.604360e-04	
1144	8.700000e-01	1.624577e-04	
1145	8.800000e-01	1.644540e-04	
1146	8.900000e-01	1.664252e-04	
1147	9.000000e-01	1.683717e-04	
1148	9.100000e-01	1.702939e-04	
1149	9.200000e-01	1.721922e-04	
1150	9.300000e-01	1.740668e-04	
1151	9.400000e-01	1.759182e-04	
1152	9.500000e-01	1.777466e-04	
1153	9.600000e-01	1.795525e-04	
1154	9.700000e-01	1.813361e-04	
1155	9.800000e-01	1.830977e-04	
1156	9.900000e-01	1.848377e-04	

Index   v-sweep         vs#branch       
--------------------------------------------------------------------------------
1157	1.000000e+00	1.865564e-04	
1158	1.010000e+00	1.882541e-04	
1159	1.020000e+00	1.899310e-04	
1160	1.030000e+00	1.915876e-04	
1161	1.040000e+00	1.932240e-04	
1162	1.050000e+00	1.948406e-04	
1163	1.060000e+00	1.964376e-04	
1164	1.070000e+00	1.980154e-04	
1165	1.080000e+00	1.995741e-04	
1166	1.090000e+00	2.011141e-04	
1167	1.100000e+00	2.026356e-04	
1168	1.110000e+00	2.041388e-04	
1169	1.120000e+00	2.056241e-04	
1170	1.130000e+00	2.070917e-04	
1171	1.140000e+00	2.085417e-04	
1172	1.150000e+00	2.099745e-04	
1173	1.160000e+00	2.113903e-04	
1174	1.170000e+00	2.127893e-04	
1175	1.180000e+00	2.141718e-04	
1176	1.190000e+00	2.155379e-04	
1177	1.200000e+00	2.168880e-04	
1178	1.210000e+00	2.182221e-04	
1179	1.220000e+00	2.195406e-04	
1180	1.230000e+00	2.208436e-04	
1181	1.240000e+00	2.221313e-04	
1182	1.250000e+00	2.234040e-04	
1183	1.260000e+00	2.246618e-04	
1184	1.270000e+00	2.259050e-04	
1185	1.280000e+00	2.271336e-04	
1186	1.290000e+00	2.283480e-04	
1187	1.300000e+00	2.295483e-04	
1188	1.310000e+00	2.307347e-04	
1189	1.320000e+00	2.319074e-04	
1190	1.330000e+00	2.330665e-04	
1191	1.340000e+00	2.342123e-04	
1192	1.350000e+00	2.353448e-04	
1193	1.360000e+00	2.364643e-04	
1194	1.370000e+00	2.375709e-04	
1195	1.380000e+00	2.386649e-04	
1196	1.390000e+00	2.397463e-04	
1197	1.400000e+00	2.408153e-04	
1198	1.410000e+00	2.418721e-04	
1199	1.420000e+00	2.429168e-04	
1200	1.430000e+00	2.439496e-04	
1201	1.440000e+00	2.449706e-04	
1202	1.450000e+00	2.459800e-04	
1203	1.460000e+00	2.469779e-04	
1204	1.470000e+00	2.479645e-04	
1205	1.480000e+00	2.489399e-04	
1206	1.490000e+00	2.499043e-04	
1207	1.500000e+00	2.508577e-04	
1208	0.000000e+00	1.048409e-08	
1209	1.000000e-02	1.505832e-08	
1210	2.000000e-02	2.154301e-08	
1211	3.000000e-02	3.068721e-08	
1212	4.000000e-02	4.350714e-08	
1213	5.000000e-02	6.136848e-08	
1214	6.000000e-02	8.608831e-08	

Index   v-sweep         vs#branch       
--------------------------------------------------------------------------------
1215	7.000000e-02	1.200599e-07	
1216	8.000000e-02	1.664038e-07	
1217	9.000000e-02	2.291479e-07	
1218	1.000000e-01	3.134426e-07	
1219	1.100000e-01	4.258100e-07	
1220	1.200000e-01	5.744308e-07	
1221	1.300000e-01	7.694535e-07	
1222	1.400000e-01	1.023296e-06	
1223	1.500000e-01	1.350867e-06	
1224	1.600000e-01	1.769554e-06	
1225	1.700000e-01	2.298628e-06	
1226	1.800000e-01	2.957947e-06	
1227	1.900000e-01	3.764320e-06	
1228	2.000000e-01	4.723621e-06	
1229	2.100000e-01	5.822589e-06	
1230	2.200000e-01	7.047310e-06	
1231	2.300000e-01	8.409078e-06	
1232	2.400000e-01	9.926061e-06	
1233	2.500000e-01	1.160887e-05	
1234	2.600000e-01	1.346102e-05	
1235	2.700000e-01	1.548098e-05	
1236	2.800000e-01	1.766340e-05	
1237	2.900000e-01	1.999995e-05	
1238	3.000000e-01	2.248005e-05	
1239	3.100000e-01	2.509145e-05	
1240	3.200000e-01	2.782085e-05	
1241	3.300000e-01	3.065437e-05	
1242	3.400000e-01	3.357803e-05	
1243	3.500000e-01	3.654212e-05	
1244	3.600000e-01	3.961177e-05	
1245	3.700000e-01	4.273162e-05	
1246	3.800000e-01	4.588997e-05	
1247	3.900000e-01	4.907612e-05	
1248	4.000000e-01	5.228041e-05	
1249	4.100000e-01	5.549423e-05	
1250	4.200000e-01	5.870995e-05	
1251	4.300000e-01	6.192092e-05	
1252	4.400000e-01	6.512138e-05	
1253	4.500000e-01	6.830641e-05	
1254	4.600000e-01	7.147180e-05	
1255	4.700000e-01	7.461405e-05	
1256	4.800000e-01	7.773022e-05	
1257	4.900000e-01	8.081792e-05	
1258	5.000000e-01	8.387519e-05	
1259	5.100000e-01	8.690048e-05	
1260	5.200000e-01	8.989259e-05	
1261	5.300000e-01	9.285059e-05	
1262	5.400000e-01	9.577381e-05	
1263	5.500000e-01	9.866180e-05	
1264	5.600000e-01	1.015143e-04	
1265	5.700000e-01	1.043311e-04	
1266	5.800000e-01	1.071122e-04	
1267	5.900000e-01	1.098578e-04	
1268	6.000000e-01	1.125680e-04	
1269	6.100000e-01	1.152430e-04	
1270	6.200000e-01	1.178831e-04	
1271	6.300000e-01	1.204888e-04	
1272	6.400000e-01	1.230602e-04	

Index   v-sweep         vs#branch       
--------------------------------------------------------------------------------
1273	6.500000e-01	1.255980e-04	
1274	6.600000e-01	1.281024e-04	
1275	6.700000e-01	1.305740e-04	
1276	6.800000e-01	1.330131e-04	
1277	6.900000e-01	1.354203e-04	
1278	7.000000e-01	1.377959e-04	
1279	7.100000e-01	1.401406e-04	
1280	7.200000e-01	1.424546e-04	
1281	7.300000e-01	1.447385e-04	
1282	7.400000e-01	1.469927e-04	
1283	7.500000e-01	1.492178e-04	
1284	7.600000e-01	1.514140e-04	
1285	7.700000e-01	1.535820e-04	
1286	7.800000e-01	1.557220e-04	
1287	7.900000e-01	1.578346e-04	
1288	8.000000e-01	1.599202e-04	
1289	8.100000e-01	1.619791e-04	
1290	8.200000e-01	1.640118e-04	
1291	8.300000e-01	1.660186e-04	
1292	8.400000e-01	1.680001e-04	
1293	8.500000e-01	1.699565e-04	
1294	8.600000e-01	1.718882e-04	
1295	8.700000e-01	1.737957e-04	
1296	8.800000e-01	1.756792e-04	
1297	8.900000e-01	1.775392e-04	
1298	9.000000e-01	1.793759e-04	
1299	9.100000e-01	1.811898e-04	
1300	9.200000e-01	1.829811e-04	
1301	9.300000e-01	1.847502e-04	
1302	9.400000e-01	1.864974e-04	
1303	9.500000e-01	1.882231e-04	
1304	9.600000e-01	1.899275e-04	
1305	9.700000e-01	1.916110e-04	
1306	9.800000e-01	1.932739e-04	
1307	9.900000e-01	1.949164e-04	
1308	1.000000e+00	1.965388e-04	
1309	1.010000e+00	1.981415e-04	
1310	1.020000e+00	1.997247e-04	
1311	1.030000e+00	2.012888e-04	
1312	1.040000e+00	2.028338e-04	
1313	1.050000e+00	2.043602e-04	
1314	1.060000e+00	2.058682e-04	
1315	1.070000e+00	2.073581e-04	
1316	1.080000e+00	2.088300e-04	
1317	1.090000e+00	2.102844e-04	
1318	1.100000e+00	2.117213e-04	
1319	1.110000e+00	2.131410e-04	
1320	1.120000e+00	2.145438e-04	
1321	1.130000e+00	2.159299e-04	
1322	1.140000e+00	2.172996e-04	
1323	1.150000e+00	2.186530e-04	
1324	1.160000e+00	2.199903e-04	
1325	1.170000e+00	2.213119e-04	
1326	1.180000e+00	2.226179e-04	
1327	1.190000e+00	2.239084e-04	
1328	1.200000e+00	2.251838e-04	
1329	1.210000e+00	2.264442e-04	
1330	1.220000e+00	2.276899e-04	

Index   v-sweep         vs#branch       
--------------------------------------------------------------------------------
1331	1.230000e+00	2.289209e-04	
1332	1.240000e+00	2.301376e-04	
1333	1.250000e+00	2.313400e-04	
1334	1.260000e+00	2.325285e-04	
1335	1.270000e+00	2.337031e-04	
1336	1.280000e+00	2.348640e-04	
1337	1.290000e+00	2.360115e-04	
1338	1.300000e+00	2.371457e-04	
1339	1.310000e+00	2.382667e-04	
1340	1.320000e+00	2.393748e-04	
1341	1.330000e+00	2.404701e-04	
1342	1.340000e+00	2.415527e-04	
1343	1.350000e+00	2.426229e-04	
1344	1.360000e+00	2.436808e-04	
1345	1.370000e+00	2.447265e-04	
1346	1.380000e+00	2.457602e-04	
1347	1.390000e+00	2.467821e-04	
1348	1.400000e+00	2.477923e-04	
1349	1.410000e+00	2.487909e-04	
1350	1.420000e+00	2.497781e-04	
1351	1.430000e+00	2.507540e-04	
1352	1.440000e+00	2.517188e-04	
1353	1.450000e+00	2.526727e-04	
1354	1.460000e+00	2.536156e-04	
1355	1.470000e+00	2.545479e-04	
1356	1.480000e+00	2.554695e-04	
1357	1.490000e+00	2.563807e-04	
1358	1.500000e+00	2.572816e-04	




