
Circuit: parser test

Doing analysis at TEMP = 27.000000 and TNOM = 27.000000


No. of Data Rows : 5
INFO: 0 tests failed
