
Circuit: check that we can survive emptiness

Doing analysis at TEMP = 27.000000 and TNOM = 27.000000



No. of Data Rows : 1
Doing analysis at TEMP = 27.000000 and TNOM = 27.000000


Initial Transient Solution
--------------------------

Node                                   Voltage
----                                   -------



No. of Data Rows : 59
Doing analysis at TEMP = 27.000000 and TNOM = 27.000000



No. of Data Rows : 3
TEST: done
