
Circuit: multiple .elseif, nested .if

Doing analysis at TEMP = 27.000000 and TNOM = 27.000000



No. of Data Rows : 1
INFO: nested .if test o.k.
