Warning: vin: no DC value, transient time 0 value used

Circuit: mosamp - mos amplifier - transient

Doing analysis at TEMP = 300.150000 and TNOM = 300.150000

Initial Transient Solution
--------------------------

Node                                   Voltage
----                                   -------
15                                          15
1                                      9.64515
32                                         -20
2                                     -11.7354
30                                         -15
5                                      9.46394
4                                     -12.0678
20                                   0.0419716
8                                     -2.31455
6                                      9.69774
21                                           0
7                                     -11.9005
10                                    -10.3377
9                                     -12.9978
11                                    -12.0814
12                                      -8.894
13                                    -12.2724
14                                    -12.9655
16                                     -11.047
66                                   0.0419716
vb#branch                          9.13779e-10
vddn#branch                         0.00521512
vccp#branch                        -0.00521512
vin#branch                                   0


No. of Data Rows : 2463
                       mosamp - mos amplifier - transient
--------------------------------------------------------------------------------
Index   time            v(20)           v(66)           
--------------------------------------------------------------------------------
0	0.000000e+00	4.197164e-02	4.197163e-02	
1	1.000000e-11	4.197164e-02	4.197163e-02	
2	2.000000e-11	4.197164e-02	4.197163e-02	
3	4.000000e-11	4.197164e-02	4.197163e-02	
4	8.000000e-11	4.197164e-02	4.197163e-02	
5	1.600000e-10	4.197164e-02	4.197163e-02	
6	3.200000e-10	4.197164e-02	4.197163e-02	
7	6.400000e-10	4.197164e-02	4.197163e-02	
8	1.000000e-09	4.197164e-02	4.197163e-02	
9	1.064000e-09	1.462634e-01	4.218696e-02	
10	1.192000e-09	3.375616e-01	4.300842e-02	
11	1.334111e-09	4.713290e-01	4.465247e-02	
12	1.469145e-09	5.350641e-01	4.662954e-02	
13	1.646971e-09	6.075358e-01	4.960064e-02	
14	2.000000e-09	7.392640e-01	5.657201e-02	
15	2.035565e-09	7.242492e-01	5.732607e-02	
16	2.106696e-09	6.948675e-01	5.879989e-02	
17	2.248957e-09	6.398998e-01	6.155023e-02	
18	2.533479e-09	5.441170e-01	6.634330e-02	
19	3.102523e-09	3.995060e-01	7.365950e-02	
20	3.738185e-09	2.937903e-01	7.917494e-02	
21	4.587196e-09	2.089416e-01	8.381750e-02	
22	5.860384e-09	1.434166e-01	8.753408e-02	
23	7.163024e-09	1.108006e-01	8.916494e-02	
24	8.520975e-09	9.059427e-02	8.966026e-02	
25	9.898891e-09	7.791000e-02	8.942443e-02	
26	1.174987e-08	7.096481e-02	8.855301e-02	
27	1.422782e-08	7.675036e-02	8.742022e-02	
28	1.762327e-08	9.956699e-02	8.749673e-02	
29	2.120741e-08	1.249708e-01	9.020876e-02	
30	2.551202e-08	1.466125e-01	9.613356e-02	
31	3.088462e-08	1.692059e-01	1.059889e-01	
32	3.889961e-08	2.134248e-01	1.255056e-01	
33	4.735642e-08	2.684801e-01	1.531439e-01	
34	6.191465e-08	3.670412e-01	2.154171e-01	
35	7.815975e-08	4.917323e-01	3.034443e-01	
36	1.106500e-07	7.744379e-01	5.268434e-01	
37	1.756304e-07	1.418472e+00	1.096332e+00	
38	1.881304e-07	1.551448e+00	1.220713e+00	
39	2.131304e-07	1.812111e+00	1.471352e+00	
40	2.139116e-07	1.820130e+00	1.479243e+00	
41	2.154741e-07	1.836157e+00	1.495022e+00	
42	2.158647e-07	1.840159e+00	1.498966e+00	
43	2.166460e-07	1.848158e+00	1.506854e+00	
44	2.182085e-07	1.864130e+00	1.522626e+00	
45	2.182573e-07	1.864629e+00	1.523118e+00	
46	2.183550e-07	1.865626e+00	1.524104e+00	
47	2.185503e-07	1.867619e+00	1.526075e+00	
48	2.189409e-07	1.871604e+00	1.530017e+00	
49	2.190386e-07	1.872599e+00	1.531002e+00	
50	2.192339e-07	1.874590e+00	1.532973e+00	
51	2.196245e-07	1.878570e+00	1.536913e+00	
52	2.197222e-07	1.879564e+00	1.537899e+00	
53	2.199175e-07	1.881552e+00	1.539869e+00	
54	2.203081e-07	1.885526e+00	1.543809e+00	

Index   time            v(20)           v(66)           
--------------------------------------------------------------------------------
55	2.204058e-07	1.886519e+00	1.544794e+00	
56	2.206011e-07	1.888505e+00	1.546763e+00	
57	2.209917e-07	1.892473e+00	1.550703e+00	
58	2.210894e-07	1.893465e+00	1.551687e+00	
59	2.212847e-07	1.895447e+00	1.553656e+00	
60	2.216753e-07	1.899410e+00	1.557594e+00	
61	2.217729e-07	1.900399e+00	1.558579e+00	
62	2.219683e-07	1.902379e+00	1.560547e+00	
63	2.223589e-07	1.906335e+00	1.564484e+00	
64	2.224565e-07	1.907323e+00	1.565468e+00	
65	2.226519e-07	1.909299e+00	1.567436e+00	
66	2.230425e-07	1.913249e+00	1.571372e+00	
67	2.231401e-07	1.914236e+00	1.572356e+00	
68	2.233354e-07	1.916209e+00	1.574323e+00	
69	2.237261e-07	1.920152e+00	1.578257e+00	
70	2.238237e-07	1.921137e+00	1.579241e+00	
71	2.240190e-07	1.923106e+00	1.581207e+00	
72	2.244097e-07	1.927042e+00	1.585140e+00	
73	2.245073e-07	1.928026e+00	1.586123e+00	
74	2.247026e-07	1.929992e+00	1.588089e+00	
75	2.250933e-07	1.933921e+00	1.592020e+00	
76	2.251909e-07	1.934902e+00	1.593003e+00	
77	2.253862e-07	1.936864e+00	1.594968e+00	
78	2.257769e-07	1.940786e+00	1.598897e+00	
79	2.258745e-07	1.941766e+00	1.599879e+00	
80	2.260698e-07	1.943725e+00	1.601843e+00	
81	2.264604e-07	1.947639e+00	1.605771e+00	
82	2.265581e-07	1.948617e+00	1.606753e+00	
83	2.267534e-07	1.950572e+00	1.608716e+00	
84	2.271440e-07	1.954479e+00	1.612642e+00	
85	2.272417e-07	1.955455e+00	1.613623e+00	
86	2.274370e-07	1.957406e+00	1.615585e+00	
87	2.278276e-07	1.961306e+00	1.619509e+00	
88	2.279253e-07	1.962280e+00	1.620490e+00	
89	2.281206e-07	1.964227e+00	1.622451e+00	
90	2.285112e-07	1.968119e+00	1.626372e+00	
91	2.286089e-07	1.969091e+00	1.627352e+00	
92	2.288042e-07	1.971035e+00	1.629313e+00	
93	2.291948e-07	1.974919e+00	1.633232e+00	
94	2.292925e-07	1.975889e+00	1.634211e+00	
95	2.294878e-07	1.977828e+00	1.636170e+00	
96	2.298784e-07	1.981705e+00	1.640087e+00	
97	2.299761e-07	1.982673e+00	1.641066e+00	
98	2.301714e-07	1.984608e+00	1.643024e+00	
99	2.305620e-07	1.988476e+00	1.646939e+00	
100	2.306597e-07	1.989442e+00	1.647917e+00	
101	2.308550e-07	1.991374e+00	1.649873e+00	
102	2.312456e-07	1.995234e+00	1.653785e+00	
103	2.313433e-07	1.996198e+00	1.654763e+00	
104	2.315386e-07	1.998125e+00	1.656718e+00	
105	2.319292e-07	2.001977e+00	1.660628e+00	
106	2.320269e-07	2.002939e+00	1.661605e+00	
107	2.322222e-07	2.004862e+00	1.663558e+00	
108	2.326128e-07	2.008705e+00	1.667465e+00	
109	2.327104e-07	2.009665e+00	1.668441e+00	
110	2.329058e-07	2.011584e+00	1.670393e+00	
111	2.332964e-07	2.015418e+00	1.674297e+00	
112	2.333940e-07	2.016376e+00	1.675273e+00	

Index   time            v(20)           v(66)           
--------------------------------------------------------------------------------
113	2.335894e-07	2.018291e+00	1.677224e+00	
114	2.339800e-07	2.022116e+00	1.681124e+00	
115	2.340776e-07	2.023072e+00	1.682099e+00	
116	2.342729e-07	2.024982e+00	1.684048e+00	
117	2.346636e-07	2.028799e+00	1.687946e+00	
118	2.347612e-07	2.029752e+00	1.688920e+00	
119	2.349565e-07	2.031657e+00	1.690867e+00	
120	2.353472e-07	2.035464e+00	1.694762e+00	
121	2.354448e-07	2.036415e+00	1.695735e+00	
122	2.356401e-07	2.038316e+00	1.697681e+00	
123	2.360308e-07	2.042114e+00	1.701572e+00	
124	2.361284e-07	2.043063e+00	1.702544e+00	
125	2.363237e-07	2.044959e+00	1.704488e+00	
126	2.367144e-07	2.048748e+00	1.708376e+00	
127	2.368120e-07	2.049694e+00	1.709347e+00	
128	2.370073e-07	2.051585e+00	1.711290e+00	
129	2.373979e-07	2.055364e+00	1.715174e+00	
130	2.374956e-07	2.056308e+00	1.716144e+00	
131	2.376909e-07	2.058195e+00	1.718085e+00	
132	2.380815e-07	2.061964e+00	1.721965e+00	
133	2.381792e-07	2.062905e+00	1.722935e+00	
134	2.383745e-07	2.064787e+00	1.724874e+00	
135	2.387651e-07	2.068546e+00	1.728750e+00	
136	2.388628e-07	2.069484e+00	1.729718e+00	
137	2.390581e-07	2.071361e+00	1.731655e+00	
138	2.394487e-07	2.075110e+00	1.735528e+00	
139	2.395464e-07	2.076046e+00	1.736495e+00	
140	2.397417e-07	2.077917e+00	1.738430e+00	
141	2.401323e-07	2.081656e+00	1.742299e+00	
142	2.402300e-07	2.082589e+00	1.743265e+00	
143	2.404253e-07	2.084455e+00	1.745198e+00	
144	2.408159e-07	2.088183e+00	1.749062e+00	
145	2.409136e-07	2.089114e+00	1.750028e+00	
146	2.411089e-07	2.090975e+00	1.751958e+00	
147	2.414995e-07	2.094692e+00	1.755818e+00	
148	2.415972e-07	2.095620e+00	1.756783e+00	
149	2.417925e-07	2.097475e+00	1.758711e+00	
150	2.421831e-07	2.101181e+00	1.762567e+00	
151	2.422808e-07	2.102106e+00	1.763530e+00	
152	2.424761e-07	2.103956e+00	1.765456e+00	
153	2.428667e-07	2.107651e+00	1.769307e+00	
154	2.429644e-07	2.108573e+00	1.770269e+00	
155	2.431597e-07	2.110418e+00	1.772193e+00	
156	2.435503e-07	2.114101e+00	1.776039e+00	
157	2.436479e-07	2.115021e+00	1.777000e+00	
158	2.438433e-07	2.116859e+00	1.778922e+00	
159	2.442339e-07	2.120531e+00	1.782763e+00	
160	2.443315e-07	2.121448e+00	1.783723e+00	
161	2.445269e-07	2.123280e+00	1.785642e+00	
162	2.449175e-07	2.126940e+00	1.789478e+00	
163	2.450151e-07	2.127854e+00	1.790437e+00	
164	2.452104e-07	2.129681e+00	1.792353e+00	
165	2.456011e-07	2.133329e+00	1.796185e+00	
166	2.456987e-07	2.134239e+00	1.797142e+00	
167	2.458940e-07	2.136059e+00	1.799056e+00	
168	2.462847e-07	2.139694e+00	1.802882e+00	
169	2.463823e-07	2.140601e+00	1.803838e+00	
170	2.465776e-07	2.142415e+00	1.805749e+00	

Index   time            v(20)           v(66)           
--------------------------------------------------------------------------------
171	2.469683e-07	2.146039e+00	1.809570e+00	
172	2.470659e-07	2.146944e+00	1.810525e+00	
173	2.472612e-07	2.148753e+00	1.812433e+00	
174	2.476519e-07	2.152368e+00	1.816249e+00	
175	2.477495e-07	2.153271e+00	1.817202e+00	
176	2.479448e-07	2.155076e+00	1.819108e+00	
177	2.483354e-07	2.158684e+00	1.822917e+00	
178	2.484331e-07	2.159585e+00	1.823869e+00	
179	2.486284e-07	2.161388e+00	1.825773e+00	
180	2.490190e-07	2.164989e+00	1.829577e+00	
181	2.491167e-07	2.165889e+00	1.830527e+00	
182	2.493120e-07	2.167688e+00	1.832428e+00	
183	2.497026e-07	2.171284e+00	1.836226e+00	
184	2.498003e-07	2.172182e+00	1.837176e+00	
185	2.499956e-07	2.173979e+00	1.839073e+00	
186	2.503862e-07	2.177569e+00	1.842867e+00	
187	2.504839e-07	2.178466e+00	1.843814e+00	
188	2.506792e-07	2.180259e+00	1.845709e+00	
189	2.510698e-07	2.183844e+00	1.849497e+00	
190	2.511675e-07	2.184740e+00	1.850443e+00	
191	2.513628e-07	2.186531e+00	1.852336e+00	
192	2.517534e-07	2.190110e+00	1.856118e+00	
193	2.518511e-07	2.191005e+00	1.857063e+00	
194	2.520464e-07	2.192793e+00	1.858952e+00	
195	2.524370e-07	2.196367e+00	1.862729e+00	
196	2.525347e-07	2.197261e+00	1.863673e+00	
197	2.527300e-07	2.199046e+00	1.865560e+00	
198	2.531206e-07	2.202615e+00	1.869331e+00	
199	2.532183e-07	2.203507e+00	1.870273e+00	
200	2.534136e-07	2.205290e+00	1.872157e+00	
201	2.538042e-07	2.208854e+00	1.875923e+00	
202	2.539019e-07	2.209745e+00	1.876864e+00	
203	2.540972e-07	2.211525e+00	1.878745e+00	
204	2.544878e-07	2.215084e+00	1.882506e+00	
205	2.545854e-07	2.215973e+00	1.883445e+00	
206	2.547808e-07	2.217751e+00	1.885324e+00	
207	2.551714e-07	2.221305e+00	1.889079e+00	
208	2.552690e-07	2.222193e+00	1.890017e+00	
209	2.554644e-07	2.223968e+00	1.891893e+00	
210	2.558550e-07	2.227517e+00	1.895643e+00	
211	2.559526e-07	2.228404e+00	1.896579e+00	
212	2.561479e-07	2.230177e+00	1.898453e+00	
213	2.565386e-07	2.233720e+00	1.902197e+00	
214	2.566362e-07	2.234605e+00	1.903132e+00	
215	2.568315e-07	2.236376e+00	1.905003e+00	
216	2.572222e-07	2.239914e+00	1.908742e+00	
217	2.580034e-07	2.246983e+00	1.916210e+00	
218	2.581987e-07	2.248748e+00	1.918075e+00	
219	2.585894e-07	2.252276e+00	1.921803e+00	
220	2.586870e-07	2.253158e+00	1.922734e+00	
221	2.588823e-07	2.254921e+00	1.924597e+00	
222	2.592729e-07	2.258444e+00	1.928319e+00	
223	2.593706e-07	2.259324e+00	1.929249e+00	
224	2.595659e-07	2.261085e+00	1.931109e+00	
225	2.599565e-07	2.264603e+00	1.934826e+00	
226	2.607378e-07	2.271635e+00	1.942252e+00	
227	2.609331e-07	2.273393e+00	1.944106e+00	
228	2.613237e-07	2.276910e+00	1.947813e+00	

Index   time            v(20)           v(66)           
--------------------------------------------------------------------------------
229	2.614214e-07	2.277789e+00	1.948739e+00	
230	2.616167e-07	2.279549e+00	1.950591e+00	
231	2.620073e-07	2.283070e+00	1.954292e+00	
232	2.621050e-07	2.283951e+00	1.955217e+00	
233	2.623003e-07	2.285712e+00	1.957067e+00	
234	2.626909e-07	2.289238e+00	1.960764e+00	
235	2.627886e-07	2.290120e+00	1.961687e+00	
236	2.629839e-07	2.291884e+00	1.963534e+00	
237	2.633745e-07	2.295413e+00	1.967226e+00	
238	2.634722e-07	2.296296e+00	1.968149e+00	
239	2.636675e-07	2.298061e+00	1.969994e+00	
240	2.640581e-07	2.301594e+00	1.973681e+00	
241	2.641558e-07	2.302478e+00	1.974603e+00	
242	2.643511e-07	2.304245e+00	1.976445e+00	
243	2.647417e-07	2.307780e+00	1.980129e+00	
244	2.648394e-07	2.308664e+00	1.981049e+00	
245	2.650347e-07	2.310432e+00	1.982889e+00	
246	2.654253e-07	2.313969e+00	1.986568e+00	
247	2.655229e-07	2.314854e+00	1.987487e+00	
248	2.657183e-07	2.316623e+00	1.989326e+00	
249	2.661089e-07	2.320161e+00	1.993001e+00	
250	2.662065e-07	2.321045e+00	1.993919e+00	
251	2.664019e-07	2.322815e+00	1.995755e+00	
252	2.667925e-07	2.326353e+00	1.999426e+00	
253	2.675737e-07	2.333440e+00	2.006761e+00	
254	2.677690e-07	2.335214e+00	2.008593e+00	
255	2.681597e-07	2.338765e+00	2.012256e+00	
256	2.682573e-07	2.339654e+00	2.013171e+00	
257	2.684526e-07	2.341431e+00	2.015002e+00	
258	2.688433e-07	2.344985e+00	2.018661e+00	
259	2.689409e-07	2.345874e+00	2.019576e+00	
260	2.691362e-07	2.347650e+00	2.021405e+00	
261	2.695269e-07	2.351203e+00	2.025061e+00	
262	2.696245e-07	2.352090e+00	2.025975e+00	
263	2.698198e-07	2.353866e+00	2.027802e+00	
264	2.702104e-07	2.357414e+00	2.031454e+00	
265	2.703081e-07	2.358301e+00	2.032367e+00	
266	2.705034e-07	2.360073e+00	2.034193e+00	
267	2.708940e-07	2.363617e+00	2.037842e+00	
268	2.709917e-07	2.364502e+00	2.038754e+00	
269	2.711870e-07	2.366272e+00	2.040578e+00	
270	2.715776e-07	2.369810e+00	2.044223e+00	
271	2.716753e-07	2.370693e+00	2.045134e+00	
272	2.718706e-07	2.372461e+00	2.046956e+00	
273	2.722612e-07	2.375993e+00	2.050598e+00	
274	2.723589e-07	2.376875e+00	2.051509e+00	
275	2.725542e-07	2.378640e+00	2.053329e+00	
276	2.729448e-07	2.382166e+00	2.056967e+00	
277	2.730425e-07	2.383047e+00	2.057877e+00	
278	2.732378e-07	2.384809e+00	2.059695e+00	
279	2.736284e-07	2.388329e+00	2.063330e+00	
280	2.737261e-07	2.389208e+00	2.064238e+00	
281	2.739214e-07	2.390967e+00	2.066055e+00	
282	2.743120e-07	2.394481e+00	2.069686e+00	
283	2.744097e-07	2.395359e+00	2.070594e+00	
284	2.746050e-07	2.397115e+00	2.072409e+00	
285	2.749956e-07	2.400624e+00	2.076036e+00	
286	2.750933e-07	2.401500e+00	2.076943e+00	

Index   time            v(20)           v(66)           
--------------------------------------------------------------------------------
287	2.752886e-07	2.403253e+00	2.078756e+00	
288	2.756792e-07	2.406755e+00	2.082380e+00	
289	2.757769e-07	2.407630e+00	2.083285e+00	
290	2.759722e-07	2.409380e+00	2.085096e+00	
291	2.763628e-07	2.412877e+00	2.088716e+00	
292	2.764604e-07	2.413750e+00	2.089621e+00	
293	2.766558e-07	2.415497e+00	2.091430e+00	
294	2.770464e-07	2.418988e+00	2.095046e+00	
295	2.771440e-07	2.419860e+00	2.095950e+00	
296	2.773394e-07	2.421604e+00	2.097757e+00	
297	2.777300e-07	2.425089e+00	2.101370e+00	
298	2.778276e-07	2.425959e+00	2.102272e+00	
299	2.780229e-07	2.427700e+00	2.104078e+00	
300	2.784136e-07	2.431179e+00	2.107686e+00	
301	2.785112e-07	2.432048e+00	2.108588e+00	
302	2.787065e-07	2.433786e+00	2.110391e+00	
303	2.790972e-07	2.437260e+00	2.113996e+00	
304	2.791948e-07	2.438127e+00	2.114897e+00	
305	2.793901e-07	2.439862e+00	2.116698e+00	
306	2.797808e-07	2.443329e+00	2.120299e+00	
307	2.798784e-07	2.444195e+00	2.121199e+00	
308	2.800737e-07	2.445927e+00	2.122998e+00	
309	2.804644e-07	2.449388e+00	2.126595e+00	
310	2.805620e-07	2.450253e+00	2.127494e+00	
311	2.807573e-07	2.451982e+00	2.129291e+00	
312	2.811479e-07	2.455437e+00	2.132884e+00	
313	2.812456e-07	2.456300e+00	2.133782e+00	
314	2.814409e-07	2.458026e+00	2.135577e+00	
315	2.818315e-07	2.461476e+00	2.139166e+00	
316	2.819292e-07	2.462337e+00	2.140062e+00	
317	2.821245e-07	2.464060e+00	2.141856e+00	
318	2.825151e-07	2.467504e+00	2.145440e+00	
319	2.826128e-07	2.468364e+00	2.146336e+00	
320	2.828081e-07	2.470084e+00	2.148127e+00	
321	2.831987e-07	2.473522e+00	2.151708e+00	
322	2.832964e-07	2.474381e+00	2.152602e+00	
323	2.834917e-07	2.476098e+00	2.154391e+00	
324	2.838823e-07	2.479530e+00	2.157968e+00	
325	2.839800e-07	2.480387e+00	2.158862e+00	
326	2.841753e-07	2.482102e+00	2.160649e+00	
327	2.845659e-07	2.485528e+00	2.164221e+00	
328	2.846636e-07	2.486384e+00	2.165113e+00	
329	2.848589e-07	2.488096e+00	2.166898e+00	
330	2.852495e-07	2.491517e+00	2.170466e+00	
331	2.853472e-07	2.492372e+00	2.171358e+00	
332	2.855425e-07	2.494080e+00	2.173141e+00	
333	2.859331e-07	2.497496e+00	2.176705e+00	
334	2.860308e-07	2.498349e+00	2.177595e+00	
335	2.862261e-07	2.500055e+00	2.179376e+00	
336	2.866167e-07	2.503466e+00	2.182936e+00	
337	2.867144e-07	2.504318e+00	2.183825e+00	
338	2.869097e-07	2.506021e+00	2.185604e+00	
339	2.873003e-07	2.509426e+00	2.189159e+00	
340	2.873979e-07	2.510276e+00	2.190047e+00	
341	2.875933e-07	2.511977e+00	2.191824e+00	
342	2.879839e-07	2.515377e+00	2.195375e+00	
343	2.880815e-07	2.516226e+00	2.196262e+00	
344	2.882769e-07	2.517924e+00	2.198037e+00	

Index   time            v(20)           v(66)           
--------------------------------------------------------------------------------
345	2.886675e-07	2.521317e+00	2.201583e+00	
346	2.887651e-07	2.522165e+00	2.202470e+00	
347	2.889604e-07	2.523861e+00	2.204242e+00	
348	2.893511e-07	2.527249e+00	2.207784e+00	
349	2.894487e-07	2.528096e+00	2.208670e+00	
350	2.896440e-07	2.529789e+00	2.210440e+00	
351	2.900347e-07	2.533172e+00	2.213978e+00	
352	2.901323e-07	2.534017e+00	2.214862e+00	
353	2.903276e-07	2.535708e+00	2.216630e+00	
354	2.907183e-07	2.539086e+00	2.220164e+00	
355	2.908159e-07	2.539930e+00	2.221047e+00	
356	2.910112e-07	2.541618e+00	2.222812e+00	
357	2.914019e-07	2.544991e+00	2.226342e+00	
358	2.914995e-07	2.545834e+00	2.227224e+00	
359	2.916948e-07	2.547519e+00	2.228987e+00	
360	2.920854e-07	2.550887e+00	2.232513e+00	
361	2.921831e-07	2.551729e+00	2.233393e+00	
362	2.923784e-07	2.553412e+00	2.235155e+00	
363	2.927690e-07	2.556775e+00	2.238676e+00	
364	2.928667e-07	2.557615e+00	2.239555e+00	
365	2.930620e-07	2.559296e+00	2.241315e+00	
366	2.934526e-07	2.562654e+00	2.244831e+00	
367	2.935503e-07	2.563493e+00	2.245710e+00	
368	2.937456e-07	2.565171e+00	2.247467e+00	
369	2.941362e-07	2.568524e+00	2.250979e+00	
370	2.942339e-07	2.569362e+00	2.251856e+00	
371	2.944292e-07	2.571038e+00	2.253611e+00	
372	2.948198e-07	2.574386e+00	2.257119e+00	
373	2.949175e-07	2.575223e+00	2.257995e+00	
374	2.951128e-07	2.576896e+00	2.259748e+00	
375	2.955034e-07	2.580239e+00	2.263251e+00	
376	2.956011e-07	2.581075e+00	2.264127e+00	
377	2.957964e-07	2.582745e+00	2.265877e+00	
378	2.961870e-07	2.586084e+00	2.269376e+00	
379	2.962847e-07	2.586918e+00	2.270250e+00	
380	2.964800e-07	2.588586e+00	2.271999e+00	
381	2.968706e-07	2.591920e+00	2.275493e+00	
382	2.969683e-07	2.592753e+00	2.276366e+00	
383	2.971636e-07	2.594419e+00	2.278113e+00	
384	2.975542e-07	2.597748e+00	2.281603e+00	
385	2.976519e-07	2.598580e+00	2.282475e+00	
386	2.978472e-07	2.600244e+00	2.284219e+00	
387	2.982378e-07	2.603568e+00	2.287704e+00	
388	2.983354e-07	2.604399e+00	2.288575e+00	
389	2.985308e-07	2.606060e+00	2.290317e+00	
390	2.989214e-07	2.609380e+00	2.293798e+00	
391	2.990190e-07	2.610209e+00	2.294668e+00	
392	2.992144e-07	2.611868e+00	2.296408e+00	
393	2.996050e-07	2.615183e+00	2.299885e+00	
394	2.997026e-07	2.616012e+00	2.300754e+00	
395	2.998979e-07	2.617668e+00	2.302491e+00	
396	3.002886e-07	2.620978e+00	2.305963e+00	
397	3.003862e-07	2.621806e+00	2.306831e+00	
398	3.005815e-07	2.623460e+00	2.308566e+00	
399	3.009722e-07	2.626766e+00	2.312034e+00	
400	3.010698e-07	2.627592e+00	2.312901e+00	
401	3.012651e-07	2.629243e+00	2.314634e+00	
402	3.016558e-07	2.632545e+00	2.318098e+00	

Index   time            v(20)           v(66)           
--------------------------------------------------------------------------------
403	3.017534e-07	2.633370e+00	2.318963e+00	
404	3.019487e-07	2.635019e+00	2.320694e+00	
405	3.023394e-07	2.638316e+00	2.324153e+00	
406	3.024370e-07	2.639140e+00	2.325018e+00	
407	3.026323e-07	2.640787e+00	2.326746e+00	
408	3.030229e-07	2.644079e+00	2.330201e+00	
409	3.031206e-07	2.644902e+00	2.331064e+00	
410	3.033159e-07	2.646547e+00	2.332790e+00	
411	3.037065e-07	2.649834e+00	2.336241e+00	
412	3.038042e-07	2.650656e+00	2.337103e+00	
413	3.039995e-07	2.652299e+00	2.338827e+00	
414	3.043901e-07	2.655582e+00	2.342274e+00	
415	3.044878e-07	2.656402e+00	2.343135e+00	
416	3.046831e-07	2.658043e+00	2.344856e+00	
417	3.050737e-07	2.661321e+00	2.348298e+00	
418	3.051714e-07	2.662141e+00	2.349158e+00	
419	3.053667e-07	2.663779e+00	2.350878e+00	
420	3.057573e-07	2.667053e+00	2.354315e+00	
421	3.058550e-07	2.667871e+00	2.355174e+00	
422	3.060503e-07	2.669507e+00	2.356892e+00	
423	3.064409e-07	2.672777e+00	2.360325e+00	
424	3.065386e-07	2.673594e+00	2.361183e+00	
425	3.067339e-07	2.675228e+00	2.362898e+00	
426	3.071245e-07	2.678494e+00	2.366327e+00	
427	3.072222e-07	2.679310e+00	2.367183e+00	
428	3.074175e-07	2.680941e+00	2.368896e+00	
429	3.078081e-07	2.684202e+00	2.372321e+00	
430	3.079058e-07	2.685017e+00	2.373176e+00	
431	3.081011e-07	2.686647e+00	2.374887e+00	
432	3.084917e-07	2.689903e+00	2.378307e+00	
433	3.085894e-07	2.690717e+00	2.379161e+00	
434	3.087847e-07	2.692344e+00	2.380870e+00	
435	3.091753e-07	2.695597e+00	2.384286e+00	
436	3.092729e-07	2.696409e+00	2.385139e+00	
437	3.094683e-07	2.698034e+00	2.386846e+00	
438	3.098589e-07	2.701282e+00	2.390257e+00	
439	3.099565e-07	2.702094e+00	2.391109e+00	
440	3.101519e-07	2.703717e+00	2.392813e+00	
441	3.105425e-07	2.706961e+00	2.396220e+00	
442	3.106401e-07	2.707771e+00	2.397071e+00	
443	3.108354e-07	2.709392e+00	2.398774e+00	
444	3.112261e-07	2.712631e+00	2.402176e+00	
445	3.113237e-07	2.713441e+00	2.403026e+00	
446	3.115190e-07	2.715059e+00	2.404726e+00	
447	3.119097e-07	2.718295e+00	2.408124e+00	
448	3.120073e-07	2.719103e+00	2.408973e+00	
449	3.122026e-07	2.720719e+00	2.410671e+00	
450	3.125933e-07	2.723950e+00	2.414065e+00	
451	3.126909e-07	2.724758e+00	2.414913e+00	
452	3.128862e-07	2.726372e+00	2.416608e+00	
453	3.132769e-07	2.729599e+00	2.419998e+00	
454	3.133745e-07	2.730405e+00	2.420845e+00	
455	3.135698e-07	2.732017e+00	2.422538e+00	
456	3.139604e-07	2.735239e+00	2.425923e+00	
457	3.140581e-07	2.736045e+00	2.426769e+00	
458	3.142534e-07	2.737655e+00	2.428460e+00	
459	3.146440e-07	2.740873e+00	2.431841e+00	
460	3.147417e-07	2.741677e+00	2.432686e+00	

Index   time            v(20)           v(66)           
--------------------------------------------------------------------------------
461	3.149370e-07	2.743285e+00	2.434375e+00	
462	3.153276e-07	2.746499e+00	2.437751e+00	
463	3.154253e-07	2.747302e+00	2.438595e+00	
464	3.156206e-07	2.748908e+00	2.440282e+00	
465	3.160112e-07	2.752117e+00	2.443654e+00	
466	3.161089e-07	2.752919e+00	2.444497e+00	
467	3.163042e-07	2.754523e+00	2.446181e+00	
468	3.166948e-07	2.757729e+00	2.449549e+00	
469	3.167925e-07	2.758530e+00	2.450391e+00	
470	3.169878e-07	2.760131e+00	2.452073e+00	
471	3.173784e-07	2.763333e+00	2.455437e+00	
472	3.174761e-07	2.764133e+00	2.456277e+00	
473	3.176714e-07	2.765732e+00	2.457958e+00	
474	3.180620e-07	2.768929e+00	2.461317e+00	
475	3.181597e-07	2.769728e+00	2.462156e+00	
476	3.183550e-07	2.771326e+00	2.463834e+00	
477	3.187456e-07	2.774519e+00	2.467189e+00	
478	3.188433e-07	2.775317e+00	2.468028e+00	
479	3.190386e-07	2.776912e+00	2.469704e+00	
480	3.194292e-07	2.780101e+00	2.473054e+00	
481	3.195269e-07	2.780898e+00	2.473891e+00	
482	3.197222e-07	2.782491e+00	2.475566e+00	
483	3.201128e-07	2.785676e+00	2.478912e+00	
484	3.202104e-07	2.786472e+00	2.479748e+00	
485	3.204058e-07	2.788063e+00	2.481420e+00	
486	3.207964e-07	2.791243e+00	2.484762e+00	
487	3.208940e-07	2.792038e+00	2.485597e+00	
488	3.210894e-07	2.793627e+00	2.487267e+00	
489	3.214800e-07	2.796804e+00	2.490604e+00	
490	3.215776e-07	2.797598e+00	2.491438e+00	
491	3.217729e-07	2.799185e+00	2.493106e+00	
492	3.221636e-07	2.802357e+00	2.496440e+00	
493	3.222612e-07	2.803150e+00	2.497272e+00	
494	3.224565e-07	2.804735e+00	2.498938e+00	
495	3.228472e-07	2.807903e+00	2.502267e+00	
496	3.229448e-07	2.808695e+00	2.503099e+00	
497	3.231401e-07	2.810278e+00	2.504762e+00	
498	3.235308e-07	2.813442e+00	2.508087e+00	
499	3.236284e-07	2.814233e+00	2.508918e+00	
500	3.238237e-07	2.815814e+00	2.510579e+00	
501	3.242144e-07	2.818974e+00	2.513900e+00	
502	3.243120e-07	2.819764e+00	2.514730e+00	
503	3.245073e-07	2.821343e+00	2.516389e+00	
504	3.248979e-07	2.824499e+00	2.519705e+00	
505	3.249956e-07	2.825287e+00	2.520534e+00	
506	3.251909e-07	2.826864e+00	2.522191e+00	
507	3.255815e-07	2.830016e+00	2.525503e+00	
508	3.256792e-07	2.830804e+00	2.526331e+00	
509	3.258745e-07	2.832379e+00	2.527986e+00	
510	3.262651e-07	2.835527e+00	2.531294e+00	
511	3.263628e-07	2.836313e+00	2.532121e+00	
512	3.265581e-07	2.837886e+00	2.533773e+00	
513	3.269487e-07	2.841030e+00	2.537077e+00	
514	3.270464e-07	2.841816e+00	2.537903e+00	
515	3.272417e-07	2.843386e+00	2.539553e+00	
516	3.276323e-07	2.846526e+00	2.542853e+00	
517	3.277300e-07	2.847311e+00	2.543677e+00	
518	3.279253e-07	2.848880e+00	2.545326e+00	

Index   time            v(20)           v(66)           
--------------------------------------------------------------------------------
519	3.283159e-07	2.852016e+00	2.548621e+00	
520	3.284136e-07	2.852799e+00	2.549445e+00	
521	3.286089e-07	2.854366e+00	2.551091e+00	
522	3.289995e-07	2.857498e+00	2.554383e+00	
523	3.290972e-07	2.858280e+00	2.555205e+00	
524	3.292925e-07	2.859845e+00	2.556849e+00	
525	3.296831e-07	2.862973e+00	2.560136e+00	
526	3.297808e-07	2.863755e+00	2.560958e+00	
527	3.299761e-07	2.865317e+00	2.562600e+00	
528	3.303667e-07	2.868441e+00	2.565883e+00	
529	3.304644e-07	2.869222e+00	2.566703e+00	
530	3.306597e-07	2.870783e+00	2.568343e+00	
531	3.310503e-07	2.873902e+00	2.571622e+00	
532	3.311479e-07	2.874682e+00	2.572441e+00	
533	3.313433e-07	2.876241e+00	2.574079e+00	
534	3.317339e-07	2.879357e+00	2.577354e+00	
535	3.318315e-07	2.880135e+00	2.578172e+00	
536	3.320269e-07	2.881692e+00	2.579808e+00	
537	3.324175e-07	2.884804e+00	2.583078e+00	
538	3.325151e-07	2.885582e+00	2.583896e+00	
539	3.327104e-07	2.887137e+00	2.585530e+00	
540	3.331011e-07	2.890244e+00	2.588796e+00	
541	3.331987e-07	2.891021e+00	2.589612e+00	
542	3.333940e-07	2.892574e+00	2.591244e+00	
543	3.337847e-07	2.895678e+00	2.594506e+00	
544	3.338823e-07	2.896454e+00	2.595321e+00	
545	3.340776e-07	2.898004e+00	2.596951e+00	
546	3.344683e-07	2.901104e+00	2.600209e+00	
547	3.345659e-07	2.901879e+00	2.601023e+00	
548	3.347612e-07	2.903428e+00	2.602650e+00	
549	3.351519e-07	2.906524e+00	2.605904e+00	
550	3.352495e-07	2.907298e+00	2.606717e+00	
551	3.354448e-07	2.908845e+00	2.608343e+00	
552	3.358354e-07	2.911937e+00	2.611593e+00	
553	3.366167e-07	2.918114e+00	2.618085e+00	
554	3.368120e-07	2.919657e+00	2.619706e+00	
555	3.372026e-07	2.922741e+00	2.622947e+00	
556	3.379839e-07	2.928904e+00	2.629423e+00	
557	3.381792e-07	2.930443e+00	2.631040e+00	
558	3.385698e-07	2.933519e+00	2.634274e+00	
559	3.393511e-07	2.939665e+00	2.640733e+00	
560	3.395464e-07	2.941200e+00	2.642346e+00	
561	3.399370e-07	2.944269e+00	2.645571e+00	
562	3.407183e-07	2.950400e+00	2.652014e+00	
563	3.409136e-07	2.951931e+00	2.653623e+00	
564	3.413042e-07	2.954992e+00	2.656840e+00	
565	3.420854e-07	2.961107e+00	2.663267e+00	
566	3.422808e-07	2.962634e+00	2.664872e+00	
567	3.426714e-07	2.965687e+00	2.668081e+00	
568	3.434526e-07	2.971788e+00	2.674492e+00	
569	3.436479e-07	2.973311e+00	2.676093e+00	
570	3.440386e-07	2.976357e+00	2.679293e+00	
571	3.448198e-07	2.982441e+00	2.685688e+00	
572	3.450151e-07	2.983960e+00	2.687285e+00	
573	3.454058e-07	2.986998e+00	2.690477e+00	
574	3.461870e-07	2.993067e+00	2.696856e+00	
575	3.463823e-07	2.994583e+00	2.698449e+00	
576	3.467729e-07	2.997613e+00	2.701633e+00	

Index   time            v(20)           v(66)           
--------------------------------------------------------------------------------
577	3.475542e-07	3.003666e+00	2.707996e+00	
578	3.477495e-07	3.005178e+00	2.709584e+00	
579	3.481401e-07	3.008202e+00	2.712761e+00	
580	3.489214e-07	3.014245e+00	2.719107e+00	
581	3.491167e-07	3.015755e+00	2.720692e+00	
582	3.495073e-07	3.018773e+00	2.723861e+00	
583	3.502886e-07	3.024804e+00	2.730192e+00	
584	3.504839e-07	3.026309e+00	2.731773e+00	
585	3.508745e-07	3.029320e+00	2.734934e+00	
586	3.516558e-07	3.035335e+00	2.741249e+00	
587	3.518511e-07	3.036837e+00	2.742826e+00	
588	3.522417e-07	3.039839e+00	2.745979e+00	
589	3.530229e-07	3.045838e+00	2.752278e+00	
590	3.532183e-07	3.047336e+00	2.753852e+00	
591	3.536089e-07	3.050331e+00	2.756997e+00	
592	3.543901e-07	3.056314e+00	2.763281e+00	
593	3.545854e-07	3.057808e+00	2.764850e+00	
594	3.549761e-07	3.060794e+00	2.767987e+00	
595	3.557573e-07	3.066761e+00	2.774256e+00	
596	3.559526e-07	3.068251e+00	2.775821e+00	
597	3.563433e-07	3.071231e+00	2.778951e+00	
598	3.571245e-07	3.077183e+00	2.785204e+00	
599	3.573198e-07	3.078669e+00	2.786765e+00	
600	3.577104e-07	3.081641e+00	2.789887e+00	
601	3.584917e-07	3.087577e+00	2.796124e+00	
602	3.586870e-07	3.089060e+00	2.797682e+00	
603	3.590776e-07	3.092024e+00	2.800796e+00	
604	3.598589e-07	3.097946e+00	2.807018e+00	
605	3.600542e-07	3.099425e+00	2.808571e+00	
606	3.604448e-07	3.102381e+00	2.811678e+00	
607	3.612261e-07	3.108287e+00	2.817884e+00	
608	3.614214e-07	3.109762e+00	2.819434e+00	
609	3.618120e-07	3.112711e+00	2.822533e+00	
610	3.625933e-07	3.118603e+00	2.828723e+00	
611	3.627886e-07	3.120074e+00	2.830270e+00	
612	3.631792e-07	3.123016e+00	2.833361e+00	
613	3.639604e-07	3.128893e+00	2.839536e+00	
614	3.641558e-07	3.130361e+00	2.841078e+00	
615	3.645464e-07	3.133295e+00	2.844162e+00	
616	3.653276e-07	3.139157e+00	2.850322e+00	
617	3.655229e-07	3.140621e+00	2.851860e+00	
618	3.659136e-07	3.143548e+00	2.854936e+00	
619	3.666948e-07	3.149396e+00	2.861081e+00	
620	3.668901e-07	3.150856e+00	2.862616e+00	
621	3.672808e-07	3.153776e+00	2.865684e+00	
622	3.680620e-07	3.159609e+00	2.871813e+00	
623	3.682573e-07	3.161066e+00	2.873344e+00	
624	3.686479e-07	3.163979e+00	2.876405e+00	
625	3.694292e-07	3.169797e+00	2.882519e+00	
626	3.696245e-07	3.171250e+00	2.884046e+00	
627	3.700151e-07	3.174156e+00	2.887099e+00	
628	3.707964e-07	3.179960e+00	2.893199e+00	
629	3.709917e-07	3.181410e+00	2.894722e+00	
630	3.713823e-07	3.184308e+00	2.897767e+00	
631	3.721636e-07	3.190098e+00	2.903852e+00	
632	3.723589e-07	3.191544e+00	2.905371e+00	
633	3.727495e-07	3.194435e+00	2.908409e+00	
634	3.735308e-07	3.200211e+00	2.914479e+00	

Index   time            v(20)           v(66)           
--------------------------------------------------------------------------------
635	3.737261e-07	3.201653e+00	2.915994e+00	
636	3.741167e-07	3.204537e+00	2.919025e+00	
637	3.748979e-07	3.210299e+00	2.925079e+00	
638	3.750933e-07	3.211737e+00	2.926591e+00	
639	3.754839e-07	3.214614e+00	2.929614e+00	
640	3.762651e-07	3.220363e+00	2.935654e+00	
641	3.764604e-07	3.221798e+00	2.937162e+00	
642	3.768511e-07	3.224667e+00	2.940178e+00	
643	3.776323e-07	3.230401e+00	2.946203e+00	
644	3.778276e-07	3.231833e+00	2.947707e+00	
645	3.782183e-07	3.234696e+00	2.950715e+00	
646	3.789995e-07	3.240415e+00	2.956725e+00	
647	3.791948e-07	3.241844e+00	2.958226e+00	
648	3.795854e-07	3.244699e+00	2.961227e+00	
649	3.803667e-07	3.250405e+00	2.967222e+00	
650	3.805620e-07	3.251830e+00	2.968719e+00	
651	3.809526e-07	3.254678e+00	2.971713e+00	
652	3.817339e-07	3.260370e+00	2.977693e+00	
653	3.819292e-07	3.261791e+00	2.979187e+00	
654	3.823198e-07	3.264633e+00	2.982173e+00	
655	3.831011e-07	3.270311e+00	2.988139e+00	
656	3.832964e-07	3.271729e+00	2.989629e+00	
657	3.836870e-07	3.274563e+00	2.992608e+00	
658	3.844683e-07	3.280228e+00	2.998559e+00	
659	3.846636e-07	3.281642e+00	3.000045e+00	
660	3.850542e-07	3.284470e+00	3.003017e+00	
661	3.858354e-07	3.290120e+00	3.008954e+00	
662	3.860308e-07	3.291531e+00	3.010436e+00	
663	3.864214e-07	3.294352e+00	3.013400e+00	
664	3.872026e-07	3.299988e+00	3.019323e+00	
665	3.873979e-07	3.301396e+00	3.020802e+00	
666	3.877886e-07	3.304210e+00	3.023759e+00	
667	3.885698e-07	3.309833e+00	3.029667e+00	
668	3.887651e-07	3.311237e+00	3.031142e+00	
669	3.891558e-07	3.314044e+00	3.034092e+00	
670	3.899370e-07	3.319653e+00	3.039986e+00	
671	3.901323e-07	3.321054e+00	3.041457e+00	
672	3.905229e-07	3.323854e+00	3.044400e+00	
673	3.913042e-07	3.329450e+00	3.050279e+00	
674	3.914995e-07	3.330847e+00	3.051747e+00	
675	3.918901e-07	3.333641e+00	3.054683e+00	
676	3.926714e-07	3.339223e+00	3.060548e+00	
677	3.928667e-07	3.340617e+00	3.062013e+00	
678	3.932573e-07	3.343404e+00	3.064941e+00	
679	3.940386e-07	3.348973e+00	3.070792e+00	
680	3.942339e-07	3.350363e+00	3.072253e+00	
681	3.946245e-07	3.353143e+00	3.075174e+00	
682	3.954058e-07	3.358699e+00	3.081011e+00	
683	3.956011e-07	3.360086e+00	3.082468e+00	
684	3.959917e-07	3.362859e+00	3.085382e+00	
685	3.967729e-07	3.368401e+00	3.091205e+00	
686	3.969683e-07	3.369785e+00	3.092659e+00	
687	3.973589e-07	3.372552e+00	3.095566e+00	
688	3.981401e-07	3.378080e+00	3.101374e+00	
689	3.983354e-07	3.379461e+00	3.102825e+00	
690	3.987261e-07	3.382221e+00	3.105725e+00	
691	3.995073e-07	3.387736e+00	3.111519e+00	
692	3.997026e-07	3.389114e+00	3.112966e+00	

Index   time            v(20)           v(66)           
--------------------------------------------------------------------------------
693	4.000933e-07	3.391867e+00	3.115859e+00	
694	4.008745e-07	3.397369e+00	3.121640e+00	
695	4.010698e-07	3.398743e+00	3.123083e+00	
696	4.014604e-07	3.401490e+00	3.125969e+00	
697	4.022417e-07	3.406979e+00	3.131736e+00	
698	4.024370e-07	3.408349e+00	3.133176e+00	
699	4.028276e-07	3.411090e+00	3.136055e+00	
700	4.036089e-07	3.416564e+00	3.141807e+00	
701	4.038042e-07	3.417932e+00	3.143244e+00	
702	4.041948e-07	3.420666e+00	3.146116e+00	
703	4.049761e-07	3.426128e+00	3.151855e+00	
704	4.051714e-07	3.427493e+00	3.153288e+00	
705	4.055620e-07	3.430220e+00	3.156154e+00	
706	4.063433e-07	3.435669e+00	3.161878e+00	
707	4.065386e-07	3.437029e+00	3.163308e+00	
708	4.069292e-07	3.439750e+00	3.166167e+00	
709	4.077104e-07	3.445187e+00	3.171878e+00	
710	4.079058e-07	3.446545e+00	3.173304e+00	
711	4.082964e-07	3.449259e+00	3.176156e+00	
712	4.090776e-07	3.454682e+00	3.181853e+00	
713	4.092729e-07	3.456036e+00	3.183276e+00	
714	4.096636e-07	3.458744e+00	3.186121e+00	
715	4.104448e-07	3.464155e+00	3.191804e+00	
716	4.106401e-07	3.465506e+00	3.193224e+00	
717	4.110308e-07	3.468207e+00	3.196062e+00	
718	4.118120e-07	3.473604e+00	3.201732e+00	
719	4.120073e-07	3.474952e+00	3.203148e+00	
720	4.123979e-07	3.477647e+00	3.205979e+00	
721	4.131792e-07	3.483031e+00	3.211636e+00	
722	4.133745e-07	3.484376e+00	3.213049e+00	
723	4.137651e-07	3.487065e+00	3.215873e+00	
724	4.145464e-07	3.492436e+00	3.221516e+00	
725	4.147417e-07	3.493778e+00	3.222925e+00	
726	4.151323e-07	3.496460e+00	3.225743e+00	
727	4.159136e-07	3.501819e+00	3.231373e+00	
728	4.161089e-07	3.503157e+00	3.232779e+00	
729	4.164995e-07	3.505833e+00	3.235590e+00	
730	4.172808e-07	3.511179e+00	3.241206e+00	
731	4.174761e-07	3.512514e+00	3.242609e+00	
732	4.178667e-07	3.515184e+00	3.245413e+00	
733	4.186479e-07	3.520517e+00	3.251016e+00	
734	4.188433e-07	3.521849e+00	3.252415e+00	
735	4.192339e-07	3.524512e+00	3.255213e+00	
736	4.200151e-07	3.529833e+00	3.260802e+00	
737	4.202104e-07	3.531162e+00	3.262198e+00	
738	4.206011e-07	3.533819e+00	3.264989e+00	
739	4.213823e-07	3.539127e+00	3.270565e+00	
740	4.215776e-07	3.540453e+00	3.271958e+00	
741	4.219683e-07	3.543104e+00	3.274742e+00	
742	4.227495e-07	3.548400e+00	3.280305e+00	
743	4.229448e-07	3.549722e+00	3.281695e+00	
744	4.233354e-07	3.552367e+00	3.284472e+00	
745	4.241167e-07	3.557650e+00	3.290022e+00	
746	4.243120e-07	3.558970e+00	3.291408e+00	
747	4.247026e-07	3.561608e+00	3.294179e+00	
748	4.254839e-07	3.566879e+00	3.299716e+00	
749	4.256792e-07	3.568196e+00	3.301099e+00	
750	4.260698e-07	3.570828e+00	3.303864e+00	

Index   time            v(20)           v(66)           
--------------------------------------------------------------------------------
751	4.268511e-07	3.576086e+00	3.309387e+00	
752	4.270464e-07	3.577400e+00	3.310767e+00	
753	4.274370e-07	3.580026e+00	3.313525e+00	
754	4.282183e-07	3.585272e+00	3.319035e+00	
755	4.284136e-07	3.586582e+00	3.320412e+00	
756	4.288042e-07	3.589202e+00	3.323163e+00	
757	4.295854e-07	3.594436e+00	3.328661e+00	
758	4.297808e-07	3.595743e+00	3.330034e+00	
759	4.301714e-07	3.598357e+00	3.332779e+00	
760	4.309526e-07	3.603578e+00	3.338264e+00	
761	4.311479e-07	3.604882e+00	3.339633e+00	
762	4.315386e-07	3.607490e+00	3.342372e+00	
763	4.323198e-07	3.612699e+00	3.347844e+00	
764	4.325151e-07	3.614000e+00	3.349210e+00	
765	4.329058e-07	3.616602e+00	3.351942e+00	
766	4.336870e-07	3.621799e+00	3.357401e+00	
767	4.338823e-07	3.623097e+00	3.358765e+00	
768	4.342729e-07	3.625693e+00	3.361490e+00	
769	4.350542e-07	3.630878e+00	3.366936e+00	
770	4.352495e-07	3.632173e+00	3.368297e+00	
771	4.356401e-07	3.634762e+00	3.371016e+00	
772	4.364214e-07	3.639935e+00	3.376449e+00	
773	4.366167e-07	3.641227e+00	3.377806e+00	
774	4.370073e-07	3.643810e+00	3.380519e+00	
775	4.377886e-07	3.648971e+00	3.385940e+00	
776	4.379839e-07	3.650260e+00	3.387294e+00	
777	4.383745e-07	3.652837e+00	3.390000e+00	
778	4.391558e-07	3.657986e+00	3.395408e+00	
779	4.393511e-07	3.659272e+00	3.396759e+00	
780	4.397417e-07	3.661844e+00	3.399459e+00	
781	4.405229e-07	3.666980e+00	3.404854e+00	
782	4.407183e-07	3.668264e+00	3.406202e+00	
783	4.411089e-07	3.670829e+00	3.408896e+00	
784	4.418901e-07	3.675954e+00	3.414278e+00	
785	4.420854e-07	3.677234e+00	3.415623e+00	
786	4.424761e-07	3.679793e+00	3.418310e+00	
787	4.432573e-07	3.684906e+00	3.423680e+00	
788	4.448198e-07	3.695112e+00	3.434399e+00	
789	4.452104e-07	3.697658e+00	3.437073e+00	
790	4.459917e-07	3.702748e+00	3.442418e+00	
791	4.475542e-07	3.712907e+00	3.453087e+00	
792	4.479448e-07	3.715441e+00	3.455749e+00	
793	4.487261e-07	3.720508e+00	3.461069e+00	
794	4.502886e-07	3.730622e+00	3.471689e+00	
795	4.506792e-07	3.733144e+00	3.474338e+00	
796	4.514604e-07	3.738186e+00	3.479634e+00	
797	4.530229e-07	3.748252e+00	3.490204e+00	
798	4.534136e-07	3.750763e+00	3.492841e+00	
799	4.541948e-07	3.755783e+00	3.498113e+00	
800	4.557573e-07	3.765802e+00	3.508634e+00	
801	4.561479e-07	3.768302e+00	3.511259e+00	
802	4.569292e-07	3.773298e+00	3.516506e+00	
803	4.584917e-07	3.783274e+00	3.526979e+00	
804	4.588823e-07	3.785762e+00	3.529592e+00	
805	4.596636e-07	3.790735e+00	3.534814e+00	
806	4.612261e-07	3.800664e+00	3.545239e+00	
807	4.616167e-07	3.803141e+00	3.547840e+00	
808	4.623979e-07	3.808091e+00	3.553039e+00	

Index   time            v(20)           v(66)           
--------------------------------------------------------------------------------
809	4.639604e-07	3.817973e+00	3.563416e+00	
810	4.643511e-07	3.820439e+00	3.566005e+00	
811	4.651323e-07	3.825367e+00	3.571180e+00	
812	4.666948e-07	3.835204e+00	3.581509e+00	
813	4.670854e-07	3.837659e+00	3.584086e+00	
814	4.678667e-07	3.842565e+00	3.589237e+00	
815	4.694292e-07	3.852358e+00	3.599519e+00	
816	4.698198e-07	3.854801e+00	3.602085e+00	
817	4.706011e-07	3.859685e+00	3.607213e+00	
818	4.721636e-07	3.869433e+00	3.617448e+00	
819	4.725542e-07	3.871866e+00	3.620001e+00	
820	4.733354e-07	3.876728e+00	3.625106e+00	
821	4.748979e-07	3.886432e+00	3.635294e+00	
822	4.752886e-07	3.888853e+00	3.637837e+00	
823	4.760698e-07	3.893693e+00	3.642918e+00	
824	4.776323e-07	3.903353e+00	3.653060e+00	
825	4.780229e-07	3.905764e+00	3.655591e+00	
826	4.788042e-07	3.910582e+00	3.660649e+00	
827	4.803667e-07	3.920201e+00	3.670745e+00	
828	4.807573e-07	3.922600e+00	3.673264e+00	
829	4.815386e-07	3.927402e+00	3.678299e+00	
830	4.831011e-07	3.937015e+00	3.688351e+00	
831	4.834917e-07	3.939416e+00	3.690860e+00	
832	4.842729e-07	3.944218e+00	3.695873e+00	
833	4.858354e-07	3.953809e+00	3.705883e+00	
834	4.862261e-07	3.956201e+00	3.708381e+00	
835	4.870073e-07	3.960987e+00	3.713374e+00	
836	4.885698e-07	3.970541e+00	3.723343e+00	
837	4.889604e-07	3.972923e+00	3.725831e+00	
838	4.897417e-07	3.977689e+00	3.730803e+00	
839	4.913042e-07	3.987205e+00	3.740731e+00	
840	4.916948e-07	3.989577e+00	3.743209e+00	
841	4.924761e-07	3.994324e+00	3.748161e+00	
842	4.940386e-07	4.003801e+00	3.758048e+00	
843	4.944292e-07	4.006164e+00	3.760515e+00	
844	4.952104e-07	4.010891e+00	3.765448e+00	
845	4.967729e-07	4.020329e+00	3.775294e+00	
846	4.971636e-07	4.022682e+00	3.777752e+00	
847	4.979448e-07	4.027391e+00	3.782664e+00	
848	4.995073e-07	4.036790e+00	3.792470e+00	
849	4.998979e-07	4.039134e+00	3.794918e+00	
850	5.006792e-07	4.043823e+00	3.799810e+00	
851	5.022417e-07	4.053184e+00	3.809576e+00	
852	5.026323e-07	4.055518e+00	3.812014e+00	
853	5.034136e-07	4.060188e+00	3.816886e+00	
854	5.049761e-07	4.069508e+00	3.826613e+00	
855	5.053667e-07	4.071834e+00	3.829040e+00	
856	5.061479e-07	4.076485e+00	3.833893e+00	
857	5.077104e-07	4.085769e+00	3.843580e+00	
858	5.081011e-07	4.088085e+00	3.845998e+00	
859	5.088823e-07	4.092717e+00	3.850830e+00	
860	5.104448e-07	4.101963e+00	3.860479e+00	
861	5.108354e-07	4.104270e+00	3.862887e+00	
862	5.116167e-07	4.108884e+00	3.867700e+00	
863	5.131792e-07	4.118092e+00	3.877309e+00	
864	5.163042e-07	4.136443e+00	3.896461e+00	
865	5.170854e-07	4.141011e+00	3.901232e+00	
866	5.186479e-07	4.150149e+00	3.910764e+00	

Index   time            v(20)           v(66)           
--------------------------------------------------------------------------------
867	5.217729e-07	4.168356e+00	3.929761e+00	
868	5.225542e-07	4.172887e+00	3.934494e+00	
869	5.241167e-07	4.181952e+00	3.943949e+00	
870	5.272417e-07	4.200018e+00	3.962795e+00	
871	5.280229e-07	4.204511e+00	3.967490e+00	
872	5.295854e-07	4.213502e+00	3.976869e+00	
873	5.327104e-07	4.231387e+00	3.995563e+00	
874	5.334917e-07	4.235823e+00	4.000220e+00	
875	5.350542e-07	4.244685e+00	4.009521e+00	
876	5.381792e-07	4.262322e+00	4.028054e+00	
877	5.389604e-07	4.266716e+00	4.032669e+00	
878	5.405229e-07	4.275492e+00	4.041889e+00	
879	5.436479e-07	4.292964e+00	4.060257e+00	
880	5.444292e-07	4.297314e+00	4.064832e+00	
881	5.459917e-07	4.306009e+00	4.073969e+00	
882	5.491167e-07	4.323338e+00	4.092176e+00	
883	5.553667e-07	4.357736e+00	4.128314e+00	
884	5.569292e-07	4.366254e+00	4.137280e+00	
885	5.600542e-07	4.383266e+00	4.155167e+00	
886	5.663042e-07	4.417070e+00	4.190674e+00	
887	5.678667e-07	4.425432e+00	4.199484e+00	
888	5.709917e-07	4.442141e+00	4.217058e+00	
889	5.772417e-07	4.475349e+00	4.251946e+00	
890	5.788042e-07	4.483579e+00	4.260603e+00	
891	5.819292e-07	4.500015e+00	4.277874e+00	
892	5.881792e-07	4.532643e+00	4.312160e+00	
893	5.897417e-07	4.540717e+00	4.320667e+00	
894	5.928667e-07	4.556788e+00	4.337637e+00	
895	5.991167e-07	4.588411e+00	4.371291e+00	
896	6.006792e-07	4.596159e+00	4.379628e+00	
897	6.038042e-07	4.611601e+00	4.396247e+00	
898	6.100542e-07	4.641945e+00	4.429141e+00	
899	6.116167e-07	4.649358e+00	4.437274e+00	
900	6.147417e-07	4.664162e+00	4.453478e+00	
901	6.209917e-07	4.693293e+00	4.485502e+00	
902	6.225542e-07	4.700416e+00	4.493409e+00	
903	6.256792e-07	4.714649e+00	4.509157e+00	
904	6.319292e-07	4.742634e+00	4.540251e+00	
905	6.334917e-07	4.749526e+00	4.547923e+00	
906	6.366167e-07	4.763260e+00	4.563200e+00	
907	6.428667e-07	4.790300e+00	4.593352e+00	
908	6.444292e-07	4.796946e+00	4.600790e+00	
909	6.475542e-07	4.810171e+00	4.615597e+00	
910	6.538042e-07	4.836202e+00	4.644805e+00	
911	6.663042e-07	4.886912e+00	4.701645e+00	
912	6.913042e-07	4.987591e+00	4.810401e+00	
913	7.285230e-07	5.150329e+00	4.968960e+00	
914	7.751505e-07	5.348776e+00	5.167278e+00	
915	8.309494e-07	5.569133e+00	5.395699e+00	
916	8.391144e-07	5.599918e+00	5.427755e+00	
917	8.554445e-07	5.660759e+00	5.491224e+00	
918	8.595270e-07	5.675622e+00	5.506841e+00	
919	8.676920e-07	5.705320e+00	5.537911e+00	
920	8.697332e-07	5.712674e+00	5.545617e+00	
921	8.738157e-07	5.727371e+00	5.560987e+00	
922	8.748363e-07	5.731034e+00	5.564815e+00	
923	8.768776e-07	5.738351e+00	5.572461e+00	
924	8.809601e-07	5.752904e+00	5.587692e+00	

Index   time            v(20)           v(66)           
--------------------------------------------------------------------------------
925	8.819807e-07	5.756525e+00	5.591484e+00	
926	8.840220e-07	5.763766e+00	5.599060e+00	
927	8.881045e-07	5.778163e+00	5.614150e+00	
928	8.891251e-07	5.781751e+00	5.617907e+00	
929	8.911664e-07	5.788901e+00	5.625411e+00	
930	8.952489e-07	5.803140e+00	5.640358e+00	
931	8.962695e-07	5.806697e+00	5.644080e+00	
932	8.983107e-07	5.813793e+00	5.651513e+00	
933	9.023932e-07	5.827921e+00	5.666320e+00	
934	9.034139e-07	5.831445e+00	5.670007e+00	
935	9.054551e-07	5.838480e+00	5.677371e+00	
936	9.095376e-07	5.852487e+00	5.692042e+00	
937	9.105582e-07	5.855982e+00	5.695695e+00	
938	9.125995e-07	5.862957e+00	5.702992e+00	
939	9.166820e-07	5.876844e+00	5.717530e+00	
940	9.177026e-07	5.880308e+00	5.721150e+00	
941	9.197439e-07	5.887222e+00	5.728381e+00	
942	9.238264e-07	5.900988e+00	5.742788e+00	
943	9.248470e-07	5.904422e+00	5.746376e+00	
944	9.268883e-07	5.911275e+00	5.753542e+00	
945	9.273986e-07	5.912985e+00	5.755330e+00	
946	9.284192e-07	5.916402e+00	5.758904e+00	
947	9.304604e-07	5.923222e+00	5.766039e+00	
948	9.309708e-07	5.924925e+00	5.767819e+00	
949	9.319914e-07	5.928327e+00	5.771377e+00	
950	9.340326e-07	5.935117e+00	5.778480e+00	
951	9.345430e-07	5.936812e+00	5.780252e+00	
952	9.355636e-07	5.940200e+00	5.783794e+00	
953	9.376048e-07	5.946960e+00	5.790866e+00	
954	9.381151e-07	5.948648e+00	5.792630e+00	
955	9.391358e-07	5.952021e+00	5.796157e+00	
956	9.411770e-07	5.958751e+00	5.803196e+00	
957	9.416873e-07	5.960432e+00	5.804953e+00	
958	9.427080e-07	5.963791e+00	5.808464e+00	
959	9.447492e-07	5.970491e+00	5.815472e+00	
960	9.452595e-07	5.972165e+00	5.817221e+00	
961	9.462801e-07	5.975509e+00	5.820717e+00	
962	9.483214e-07	5.982180e+00	5.827694e+00	
963	9.488317e-07	5.983847e+00	5.829436e+00	
964	9.498523e-07	5.987176e+00	5.832916e+00	
965	9.518936e-07	5.993819e+00	5.839863e+00	
966	9.524039e-07	5.995478e+00	5.841596e+00	
967	9.534245e-07	5.998793e+00	5.845061e+00	
968	9.554658e-07	6.005406e+00	5.851977e+00	
969	9.559761e-07	6.007058e+00	5.853703e+00	
970	9.569967e-07	6.010359e+00	5.857153e+00	
971	9.590380e-07	6.016944e+00	5.864039e+00	
972	9.595483e-07	6.018589e+00	5.865758e+00	
973	9.605689e-07	6.021876e+00	5.869192e+00	
974	9.626102e-07	6.028432e+00	5.876048e+00	
975	9.631205e-07	6.030070e+00	5.877759e+00	
976	9.641411e-07	6.033342e+00	5.881179e+00	
977	9.661824e-07	6.039870e+00	5.888005e+00	
978	9.666927e-07	6.041501e+00	5.889708e+00	
979	9.677133e-07	6.044760e+00	5.893113e+00	
980	9.697545e-07	6.051260e+00	5.899910e+00	
981	9.702649e-07	6.052884e+00	5.901606e+00	
982	9.712855e-07	6.056128e+00	5.904996e+00	

Index   time            v(20)           v(66)           
--------------------------------------------------------------------------------
983	9.733267e-07	6.062600e+00	5.911763e+00	
984	9.738370e-07	6.064217e+00	5.913451e+00	
985	9.748577e-07	6.067448e+00	5.916827e+00	
986	9.768989e-07	6.073892e+00	5.923565e+00	
987	9.774092e-07	6.075502e+00	5.925246e+00	
988	9.784299e-07	6.078720e+00	5.928607e+00	
989	9.804711e-07	6.085136e+00	5.935315e+00	
990	9.809814e-07	6.086740e+00	5.936989e+00	
991	9.820021e-07	6.089944e+00	5.940336e+00	
992	9.840433e-07	6.096332e+00	5.947016e+00	
993	9.845536e-07	6.097930e+00	5.948683e+00	
994	9.855742e-07	6.101120e+00	5.952014e+00	
995	9.876155e-07	6.107481e+00	5.958666e+00	
996	9.881258e-07	6.109072e+00	5.960325e+00	
997	9.891464e-07	6.112249e+00	5.963643e+00	
998	9.911877e-07	6.118592e+00	5.970266e+00	
999	9.916980e-07	6.120171e+00	5.971919e+00	
1000	9.927186e-07	6.123331e+00	5.975222e+00	
1001	9.947599e-07	6.129642e+00	5.981817e+00	
1002	9.952702e-07	6.131217e+00	5.983462e+00	
1003	9.962908e-07	6.134365e+00	5.986751e+00	
1004	9.983321e-07	6.140647e+00	5.993318e+00	
1005	9.988424e-07	6.142216e+00	5.994956e+00	
1006	9.998630e-07	6.145352e+00	5.998232e+00	
1007	1.001904e-06	6.151606e+00	6.004770e+00	
1008	1.002415e-06	6.153171e+00	6.006402e+00	
1009	1.003435e-06	6.156294e+00	6.009663e+00	
1010	1.005476e-06	6.162532e+00	6.016174e+00	
1011	1.005987e-06	6.164084e+00	6.017798e+00	
1012	1.007007e-06	6.167191e+00	6.021046e+00	
1013	1.009049e-06	6.173397e+00	6.027529e+00	
1014	1.009559e-06	6.174946e+00	6.029147e+00	
1015	1.010580e-06	6.178041e+00	6.032381e+00	
1016	1.012621e-06	6.184218e+00	6.038836e+00	
1017	1.013131e-06	6.185762e+00	6.040447e+00	
1018	1.014152e-06	6.188846e+00	6.043667e+00	
1019	1.014407e-06	6.189617e+00	6.044472e+00	
1020	1.014917e-06	6.191156e+00	6.046080e+00	
1021	1.015938e-06	6.194232e+00	6.049293e+00	
1022	1.017979e-06	6.200370e+00	6.055708e+00	
1023	1.018489e-06	6.201905e+00	6.057309e+00	
1024	1.019510e-06	6.204970e+00	6.060509e+00	
1025	1.019765e-06	6.205736e+00	6.061308e+00	
1026	1.020276e-06	6.207266e+00	6.062906e+00	
1027	1.021296e-06	6.210323e+00	6.066099e+00	
1028	1.023337e-06	6.216423e+00	6.072473e+00	
1029	1.023848e-06	6.217948e+00	6.074064e+00	
1030	1.024868e-06	6.220995e+00	6.077244e+00	
1031	1.025123e-06	6.221755e+00	6.078038e+00	
1032	1.025634e-06	6.223276e+00	6.079626e+00	
1033	1.026654e-06	6.226315e+00	6.082799e+00	
1034	1.026910e-06	6.227074e+00	6.083592e+00	
1035	1.027420e-06	6.228591e+00	6.085176e+00	
1036	1.028441e-06	6.231623e+00	6.088343e+00	
1037	1.030482e-06	6.237672e+00	6.094664e+00	
1038	1.030992e-06	6.239185e+00	6.096242e+00	
1039	1.032013e-06	6.242207e+00	6.099395e+00	
1040	1.032268e-06	6.242961e+00	6.100182e+00	

Index   time            v(20)           v(66)           
--------------------------------------------------------------------------------
1041	1.032778e-06	6.244470e+00	6.101757e+00	
1042	1.033799e-06	6.247483e+00	6.104904e+00	
1043	1.034054e-06	6.248236e+00	6.105690e+00	
1044	1.034564e-06	6.249741e+00	6.107261e+00	
1045	1.035585e-06	6.252748e+00	6.110401e+00	
1046	1.035840e-06	6.253499e+00	6.111186e+00	
1047	1.036350e-06	6.255001e+00	6.112754e+00	
1048	1.037371e-06	6.258002e+00	6.115887e+00	
1049	1.037626e-06	6.258752e+00	6.116670e+00	
1050	1.038136e-06	6.260251e+00	6.118235e+00	
1051	1.039157e-06	6.263245e+00	6.121362e+00	
1052	1.039412e-06	6.263994e+00	6.122143e+00	
1053	1.039923e-06	6.265490e+00	6.123705e+00	
1054	1.040943e-06	6.268478e+00	6.126826e+00	
1055	1.041198e-06	6.269225e+00	6.127605e+00	
1056	1.041709e-06	6.270718e+00	6.129163e+00	
1057	1.042729e-06	6.273700e+00	6.132278e+00	
1058	1.042984e-06	6.274445e+00	6.133055e+00	
1059	1.043495e-06	6.275935e+00	6.134611e+00	
1060	1.044515e-06	6.278911e+00	6.137718e+00	
1061	1.044771e-06	6.279655e+00	6.138495e+00	
1062	1.045281e-06	6.281142e+00	6.140047e+00	
1063	1.046301e-06	6.284112e+00	6.143148e+00	
1064	1.046557e-06	6.284855e+00	6.143923e+00	
1065	1.047067e-06	6.286338e+00	6.145471e+00	
1066	1.048088e-06	6.289303e+00	6.148566e+00	
1067	1.048343e-06	6.290043e+00	6.149339e+00	
1068	1.048853e-06	6.291524e+00	6.150885e+00	
1069	1.049874e-06	6.294482e+00	6.153973e+00	
1070	1.050129e-06	6.295222e+00	6.154745e+00	
1071	1.050639e-06	6.296700e+00	6.156287e+00	
1072	1.051660e-06	6.299652e+00	6.159369e+00	
1073	1.051915e-06	6.300390e+00	6.160139e+00	
1074	1.052425e-06	6.301865e+00	6.161679e+00	
1075	1.053446e-06	6.304811e+00	6.164754e+00	
1076	1.053701e-06	6.305547e+00	6.165523e+00	
1077	1.054211e-06	6.307019e+00	6.167059e+00	
1078	1.055232e-06	6.309959e+00	6.170128e+00	
1079	1.055487e-06	6.310694e+00	6.170895e+00	
1080	1.055997e-06	6.312163e+00	6.172428e+00	
1081	1.057018e-06	6.315098e+00	6.175491e+00	
1082	1.057273e-06	6.315831e+00	6.176256e+00	
1083	1.057784e-06	6.317297e+00	6.177786e+00	
1084	1.058804e-06	6.320226e+00	6.180843e+00	
1085	1.059059e-06	6.320958e+00	6.181607e+00	
1086	1.059570e-06	6.322421e+00	6.183134e+00	
1087	1.060590e-06	6.325343e+00	6.186184e+00	
1088	1.060845e-06	6.326074e+00	6.186946e+00	
1089	1.061356e-06	6.327534e+00	6.188470e+00	
1090	1.062376e-06	6.330451e+00	6.191514e+00	
1091	1.062631e-06	6.331180e+00	6.192275e+00	
1092	1.063142e-06	6.332637e+00	6.193795e+00	
1093	1.064162e-06	6.335548e+00	6.196834e+00	
1094	1.064418e-06	6.336275e+00	6.197593e+00	
1095	1.064928e-06	6.337730e+00	6.199110e+00	
1096	1.065949e-06	6.340635e+00	6.202142e+00	
1097	1.066204e-06	6.341361e+00	6.202899e+00	
1098	1.066714e-06	6.342813e+00	6.204414e+00	

Index   time            v(20)           v(66)           
--------------------------------------------------------------------------------
1099	1.067735e-06	6.345712e+00	6.207440e+00	
1100	1.067990e-06	6.346436e+00	6.208196e+00	
1101	1.068500e-06	6.347885e+00	6.209707e+00	
1102	1.069521e-06	6.350779e+00	6.212727e+00	
1103	1.069776e-06	6.351502e+00	6.213481e+00	
1104	1.070286e-06	6.352948e+00	6.214989e+00	
1105	1.071307e-06	6.355835e+00	6.218003e+00	
1106	1.071562e-06	6.356557e+00	6.218756e+00	
1107	1.072072e-06	6.358000e+00	6.220261e+00	
1108	1.073093e-06	6.360882e+00	6.223268e+00	
1109	1.073348e-06	6.361603e+00	6.224020e+00	
1110	1.073858e-06	6.363043e+00	6.225522e+00	
1111	1.074879e-06	6.365919e+00	6.228523e+00	
1112	1.075134e-06	6.366638e+00	6.229273e+00	
1113	1.075644e-06	6.368075e+00	6.230772e+00	
1114	1.076665e-06	6.370946e+00	6.233768e+00	
1115	1.076920e-06	6.371663e+00	6.234516e+00	
1116	1.077431e-06	6.373098e+00	6.236012e+00	
1117	1.078451e-06	6.375963e+00	6.239001e+00	
1118	1.078706e-06	6.376679e+00	6.239748e+00	
1119	1.079217e-06	6.378111e+00	6.241241e+00	
1120	1.080237e-06	6.380970e+00	6.244225e+00	
1121	1.080492e-06	6.381685e+00	6.244970e+00	
1122	1.081003e-06	6.383114e+00	6.246460e+00	
1123	1.082023e-06	6.385967e+00	6.249437e+00	
1124	1.082279e-06	6.386681e+00	6.250181e+00	
1125	1.082789e-06	6.388107e+00	6.251668e+00	
1126	1.083809e-06	6.390955e+00	6.254640e+00	
1127	1.084065e-06	6.391667e+00	6.255382e+00	
1128	1.084575e-06	6.393090e+00	6.256866e+00	
1129	1.085596e-06	6.395933e+00	6.259831e+00	
1130	1.085851e-06	6.396643e+00	6.260572e+00	
1131	1.086361e-06	6.398064e+00	6.262053e+00	
1132	1.087382e-06	6.400901e+00	6.265013e+00	
1133	1.087637e-06	6.401610e+00	6.265752e+00	
1134	1.088147e-06	6.403028e+00	6.267230e+00	
1135	1.089168e-06	6.405859e+00	6.270184e+00	
1136	1.089423e-06	6.406567e+00	6.270922e+00	
1137	1.089933e-06	6.407982e+00	6.272397e+00	
1138	1.090954e-06	6.410808e+00	6.275345e+00	
1139	1.091209e-06	6.411514e+00	6.276081e+00	
1140	1.091719e-06	6.412927e+00	6.277553e+00	
1141	1.092740e-06	6.415747e+00	6.280495e+00	
1142	1.092995e-06	6.416452e+00	6.281230e+00	
1143	1.093505e-06	6.417862e+00	6.282700e+00	
1144	1.094526e-06	6.420677e+00	6.285636e+00	
1145	1.094781e-06	6.421380e+00	6.286369e+00	
1146	1.095292e-06	6.422787e+00	6.287836e+00	
1147	1.096312e-06	6.425597e+00	6.290766e+00	
1148	1.096567e-06	6.426299e+00	6.291498e+00	
1149	1.097078e-06	6.427703e+00	6.292961e+00	
1150	1.098098e-06	6.430508e+00	6.295886e+00	
1151	1.098353e-06	6.431209e+00	6.296616e+00	
1152	1.098864e-06	6.432610e+00	6.298077e+00	
1153	1.099884e-06	6.435409e+00	6.300996e+00	
1154	1.100139e-06	6.436109e+00	6.301725e+00	
1155	1.100650e-06	6.437507e+00	6.303183e+00	
1156	1.101670e-06	6.440301e+00	6.306095e+00	

Index   time            v(20)           v(66)           
--------------------------------------------------------------------------------
1157	1.101926e-06	6.440999e+00	6.306823e+00	
1158	1.102436e-06	6.442395e+00	6.308278e+00	
1159	1.103457e-06	6.445183e+00	6.311185e+00	
1160	1.103712e-06	6.445880e+00	6.311911e+00	
1161	1.104222e-06	6.447274e+00	6.313363e+00	
1162	1.105243e-06	6.450057e+00	6.316265e+00	
1163	1.105498e-06	6.450752e+00	6.316990e+00	
1164	1.106008e-06	6.452143e+00	6.318439e+00	
1165	1.107029e-06	6.454921e+00	6.321335e+00	
1166	1.107284e-06	6.455615e+00	6.322058e+00	
1167	1.107794e-06	6.457003e+00	6.323504e+00	
1168	1.108815e-06	6.459775e+00	6.326395e+00	
1169	1.109070e-06	6.460469e+00	6.327117e+00	
1170	1.109580e-06	6.461854e+00	6.328560e+00	
1171	1.110601e-06	6.464624e+00	6.331445e+00	
1172	1.110856e-06	6.465315e+00	6.332165e+00	
1173	1.111366e-06	6.466697e+00	6.333606e+00	
1174	1.112387e-06	6.469460e+00	6.336485e+00	
1175	1.112642e-06	6.470150e+00	6.337204e+00	
1176	1.113152e-06	6.471529e+00	6.338642e+00	
1177	1.114173e-06	6.474288e+00	6.341515e+00	
1178	1.114428e-06	6.474976e+00	6.342233e+00	
1179	1.114939e-06	6.476353e+00	6.343668e+00	
1180	1.115959e-06	6.479106e+00	6.346536e+00	
1181	1.116214e-06	6.479793e+00	6.347252e+00	
1182	1.116725e-06	6.481167e+00	6.348684e+00	
1183	1.117745e-06	6.483915e+00	6.351547e+00	
1184	1.118000e-06	6.484601e+00	6.352262e+00	
1185	1.118511e-06	6.485973e+00	6.353691e+00	
1186	1.119531e-06	6.488716e+00	6.356548e+00	
1187	1.119787e-06	6.489400e+00	6.357261e+00	
1188	1.120297e-06	6.490769e+00	6.358688e+00	
1189	1.121317e-06	6.493507e+00	6.361539e+00	
1190	1.121573e-06	6.494191e+00	6.362251e+00	
1191	1.122083e-06	6.495557e+00	6.363675e+00	
1192	1.123104e-06	6.498290e+00	6.366521e+00	
1193	1.123359e-06	6.498972e+00	6.367232e+00	
1194	1.123869e-06	6.500336e+00	6.368653e+00	
1195	1.124890e-06	6.503064e+00	6.371493e+00	
1196	1.125145e-06	6.503745e+00	6.372203e+00	
1197	1.125655e-06	6.505106e+00	6.373621e+00	
1198	1.126676e-06	6.507829e+00	6.376456e+00	
1199	1.126931e-06	6.508509e+00	6.377164e+00	
1200	1.127441e-06	6.509868e+00	6.378580e+00	
1201	1.128462e-06	6.512586e+00	6.381409e+00	
1202	1.128717e-06	6.513264e+00	6.382116e+00	
1203	1.129227e-06	6.514621e+00	6.383529e+00	
1204	1.130248e-06	6.517334e+00	6.386353e+00	
1205	1.130503e-06	6.518011e+00	6.387058e+00	
1206	1.131013e-06	6.519365e+00	6.388469e+00	
1207	1.132034e-06	6.522073e+00	6.391287e+00	
1208	1.132289e-06	6.522749e+00	6.391991e+00	
1209	1.132800e-06	6.524101e+00	6.393399e+00	
1210	1.133820e-06	6.526804e+00	6.396212e+00	
1211	1.134075e-06	6.527479e+00	6.396915e+00	
1212	1.134586e-06	6.528828e+00	6.398320e+00	
1213	1.135606e-06	6.531527e+00	6.401128e+00	
1214	1.135861e-06	6.532200e+00	6.401829e+00	

Index   time            v(20)           v(66)           
--------------------------------------------------------------------------------
1215	1.136372e-06	6.533547e+00	6.403232e+00	
1216	1.137392e-06	6.536241e+00	6.406034e+00	
1217	1.137647e-06	6.536913e+00	6.406734e+00	
1218	1.138158e-06	6.538257e+00	6.408134e+00	
1219	1.139178e-06	6.540947e+00	6.410931e+00	
1220	1.139434e-06	6.541617e+00	6.411630e+00	
1221	1.139944e-06	6.542960e+00	6.413027e+00	
1222	1.140965e-06	6.545644e+00	6.415819e+00	
1223	1.141220e-06	6.546314e+00	6.416517e+00	
1224	1.141730e-06	6.547653e+00	6.417911e+00	
1225	1.142751e-06	6.550333e+00	6.420698e+00	
1226	1.143006e-06	6.551002e+00	6.421394e+00	
1227	1.143516e-06	6.552339e+00	6.422786e+00	
1228	1.144537e-06	6.555014e+00	6.425568e+00	
1229	1.144792e-06	6.555682e+00	6.426262e+00	
1230	1.145302e-06	6.557017e+00	6.427652e+00	
1231	1.146323e-06	6.559687e+00	6.430428e+00	
1232	1.146578e-06	6.560354e+00	6.431122e+00	
1233	1.147088e-06	6.561686e+00	6.432508e+00	
1234	1.148109e-06	6.564352e+00	6.435280e+00	
1235	1.148364e-06	6.565017e+00	6.435972e+00	
1236	1.148874e-06	6.566348e+00	6.437356e+00	
1237	1.149895e-06	6.569007e+00	6.440122e+00	
1238	1.150150e-06	6.569671e+00	6.440813e+00	
1239	1.150660e-06	6.570998e+00	6.442195e+00	
1240	1.151681e-06	6.573651e+00	6.444956e+00	
1241	1.151936e-06	6.574313e+00	6.445645e+00	
1242	1.152447e-06	6.575638e+00	6.447024e+00	
1243	1.153467e-06	6.578287e+00	6.449780e+00	
1244	1.153722e-06	6.578948e+00	6.450469e+00	
1245	1.154233e-06	6.580271e+00	6.451845e+00	
1246	1.155253e-06	6.582916e+00	6.454596e+00	
1247	1.155508e-06	6.583576e+00	6.455283e+00	
1248	1.156019e-06	6.584897e+00	6.456657e+00	
1249	1.157039e-06	6.587538e+00	6.459402e+00	
1250	1.157295e-06	6.588198e+00	6.460088e+00	
1251	1.157805e-06	6.589517e+00	6.461459e+00	
1252	1.158825e-06	6.592153e+00	6.464200e+00	
1253	1.159081e-06	6.592811e+00	6.464884e+00	
1254	1.159591e-06	6.594128e+00	6.466253e+00	
1255	1.160612e-06	6.596760e+00	6.468989e+00	
1256	1.160867e-06	6.597418e+00	6.469672e+00	
1257	1.161377e-06	6.598733e+00	6.471038e+00	
1258	1.162398e-06	6.601361e+00	6.473769e+00	
1259	1.162653e-06	6.602017e+00	6.474451e+00	
1260	1.163163e-06	6.603330e+00	6.475815e+00	
1261	1.164184e-06	6.605954e+00	6.478540e+00	
1262	1.164439e-06	6.606609e+00	6.479221e+00	
1263	1.164949e-06	6.607920e+00	6.480583e+00	
1264	1.165970e-06	6.610540e+00	6.483303e+00	
1265	1.166225e-06	6.611194e+00	6.483983e+00	
1266	1.166735e-06	6.612503e+00	6.485342e+00	
1267	1.167756e-06	6.615118e+00	6.488058e+00	
1268	1.168011e-06	6.615772e+00	6.488736e+00	
1269	1.168521e-06	6.617078e+00	6.490093e+00	
1270	1.169542e-06	6.619690e+00	6.492804e+00	
1271	1.169797e-06	6.620343e+00	6.493481e+00	
1272	1.170308e-06	6.621647e+00	6.494835e+00	

Index   time            v(20)           v(66)           
--------------------------------------------------------------------------------
1273	1.171328e-06	6.624255e+00	6.497541e+00	
1274	1.171583e-06	6.624906e+00	6.498218e+00	
1275	1.172094e-06	6.626209e+00	6.499569e+00	
1276	1.173114e-06	6.628813e+00	6.502271e+00	
1277	1.173369e-06	6.629463e+00	6.502946e+00	
1278	1.173880e-06	6.630764e+00	6.504295e+00	
1279	1.174900e-06	6.633364e+00	6.506992e+00	
1280	1.175155e-06	6.634013e+00	6.507665e+00	
1281	1.175666e-06	6.635312e+00	6.509012e+00	
1282	1.176686e-06	6.637908e+00	6.511705e+00	
1283	1.176942e-06	6.638557e+00	6.512377e+00	
1284	1.177452e-06	6.639854e+00	6.513722e+00	
1285	1.178473e-06	6.642446e+00	6.516409e+00	
1286	1.178728e-06	6.643094e+00	6.517081e+00	
1287	1.179238e-06	6.644389e+00	6.518423e+00	
1288	1.180259e-06	6.646978e+00	6.521106e+00	
1289	1.180514e-06	6.647624e+00	6.521776e+00	
1290	1.181024e-06	6.648918e+00	6.523116e+00	
1291	1.182045e-06	6.651503e+00	6.525794e+00	
1292	1.182300e-06	6.652149e+00	6.526463e+00	
1293	1.182810e-06	6.653440e+00	6.527801e+00	
1294	1.183831e-06	6.656022e+00	6.530475e+00	
1295	1.184086e-06	6.656667e+00	6.531143e+00	
1296	1.184596e-06	6.657957e+00	6.532478e+00	
1297	1.185617e-06	6.660535e+00	6.535148e+00	
1298	1.185872e-06	6.661180e+00	6.535815e+00	
1299	1.186382e-06	6.662468e+00	6.537148e+00	
1300	1.187403e-06	6.665043e+00	6.539813e+00	
1301	1.187658e-06	6.665687e+00	6.540479e+00	
1302	1.188168e-06	6.666973e+00	6.541810e+00	
1303	1.189189e-06	6.669545e+00	6.544470e+00	
1304	1.189444e-06	6.670188e+00	6.545135e+00	
1305	1.189955e-06	6.671473e+00	6.546464e+00	
1306	1.190975e-06	6.674042e+00	6.549120e+00	
1307	1.191230e-06	6.674684e+00	6.549783e+00	
1308	1.191741e-06	6.675968e+00	6.551110e+00	
1309	1.192761e-06	6.678534e+00	6.553762e+00	
1310	1.193016e-06	6.679176e+00	6.554425e+00	
1311	1.193527e-06	6.680458e+00	6.555749e+00	
1312	1.194547e-06	6.683021e+00	6.558397e+00	
1313	1.194803e-06	6.683662e+00	6.559059e+00	
1314	1.195313e-06	6.684943e+00	6.560381e+00	
1315	1.196333e-06	6.687504e+00	6.563025e+00	
1316	1.196589e-06	6.688144e+00	6.563685e+00	
1317	1.197099e-06	6.689424e+00	6.565006e+00	
1318	1.198120e-06	6.691983e+00	6.567645e+00	
1319	1.200161e-06	6.697098e+00	6.572917e+00	
1320	1.200671e-06	6.698376e+00	6.574234e+00	
1321	1.201692e-06	6.700930e+00	6.576865e+00	
1322	1.201947e-06	6.701568e+00	6.577523e+00	
1323	1.202457e-06	6.702845e+00	6.578837e+00	
1324	1.203478e-06	6.705397e+00	6.581465e+00	
1325	1.203733e-06	6.706035e+00	6.582121e+00	
1326	1.204243e-06	6.707311e+00	6.583434e+00	
1327	1.205264e-06	6.709863e+00	6.586058e+00	
1328	1.205519e-06	6.710501e+00	6.586714e+00	
1329	1.206029e-06	6.711776e+00	6.588024e+00	
1330	1.207050e-06	6.714327e+00	6.590645e+00	

Index   time            v(20)           v(66)           
--------------------------------------------------------------------------------
1331	1.207305e-06	6.714965e+00	6.591299e+00	
1332	1.207816e-06	6.716240e+00	6.592608e+00	
1333	1.208836e-06	6.718790e+00	6.595225e+00	
1334	1.209091e-06	6.719427e+00	6.595879e+00	
1335	1.209602e-06	6.720702e+00	6.597186e+00	
1336	1.210622e-06	6.723252e+00	6.599799e+00	
1337	1.210877e-06	6.723889e+00	6.600452e+00	
1338	1.211388e-06	6.725164e+00	6.601758e+00	
1339	1.212408e-06	6.727714e+00	6.604368e+00	
1340	1.212663e-06	6.728352e+00	6.605020e+00	
1341	1.213174e-06	6.729627e+00	6.606324e+00	
1342	1.214194e-06	6.732177e+00	6.608931e+00	
1343	1.214450e-06	6.732815e+00	6.609582e+00	
1344	1.214960e-06	6.734091e+00	6.610885e+00	
1345	1.215981e-06	6.736642e+00	6.613488e+00	
1346	1.216236e-06	6.737280e+00	6.614139e+00	
1347	1.216746e-06	6.738557e+00	6.615440e+00	
1348	1.217767e-06	6.741110e+00	6.618041e+00	
1349	1.218022e-06	6.741749e+00	6.618691e+00	
1350	1.218532e-06	6.743027e+00	6.619990e+00	
1351	1.219553e-06	6.745583e+00	6.622588e+00	
1352	1.219808e-06	6.746223e+00	6.623238e+00	
1353	1.220318e-06	6.747502e+00	6.624536e+00	
1354	1.221339e-06	6.750062e+00	6.627132e+00	
1355	1.221594e-06	6.750703e+00	6.627780e+00	
1356	1.222104e-06	6.751985e+00	6.629078e+00	
1357	1.223125e-06	6.754552e+00	6.631671e+00	
1358	1.223380e-06	6.755192e+00	6.632319e+00	
1359	1.223890e-06	6.756472e+00	6.633615e+00	
1360	1.224911e-06	6.759023e+00	6.636207e+00	
1361	1.225166e-06	6.759661e+00	6.636854e+00	
1362	1.225676e-06	6.760935e+00	6.638149e+00	
1363	1.226697e-06	6.763470e+00	6.640738e+00	
1364	1.226952e-06	6.764104e+00	6.641385e+00	
1365	1.227463e-06	6.765371e+00	6.642678e+00	
1366	1.227590e-06	6.765687e+00	6.643001e+00	
1367	1.227845e-06	6.766319e+00	6.643648e+00	
1368	1.228356e-06	6.767579e+00	6.644941e+00	
1369	1.228483e-06	6.767894e+00	6.645264e+00	
1370	1.228738e-06	6.768523e+00	6.645910e+00	
1371	1.229249e-06	6.769777e+00	6.647202e+00	
1372	1.229376e-06	6.770091e+00	6.647524e+00	
1373	1.229631e-06	6.770717e+00	6.648170e+00	
1374	1.230142e-06	6.771965e+00	6.649461e+00	
1375	1.230269e-06	6.772276e+00	6.649783e+00	
1376	1.230524e-06	6.772899e+00	6.650429e+00	
1377	1.231035e-06	6.774140e+00	6.651718e+00	
1378	1.231162e-06	6.774450e+00	6.652041e+00	
1379	1.231417e-06	6.775069e+00	6.652685e+00	
1380	1.231928e-06	6.776302e+00	6.653974e+00	
1381	1.232055e-06	6.776609e+00	6.654296e+00	
1382	1.232311e-06	6.777221e+00	6.654939e+00	
1383	1.232821e-06	6.778438e+00	6.656227e+00	
1384	1.232948e-06	6.778741e+00	6.656548e+00	
1385	1.233204e-06	6.779345e+00	6.657191e+00	
1386	1.233714e-06	6.780545e+00	6.658477e+00	
1387	1.233841e-06	6.780843e+00	6.658798e+00	
1388	1.234097e-06	6.781438e+00	6.659440e+00	

Index   time            v(20)           v(66)           
--------------------------------------------------------------------------------
1389	1.234607e-06	6.782619e+00	6.660724e+00	
1390	1.234735e-06	6.782913e+00	6.661044e+00	
1391	1.234990e-06	6.783498e+00	6.661685e+00	
1392	1.235500e-06	6.784661e+00	6.662966e+00	
1393	1.235628e-06	6.784950e+00	6.663286e+00	
1394	1.235883e-06	6.785526e+00	6.663926e+00	
1395	1.236393e-06	6.786669e+00	6.665205e+00	
1396	1.236521e-06	6.786954e+00	6.665524e+00	
1397	1.236776e-06	6.787520e+00	6.666163e+00	
1398	1.237286e-06	6.788645e+00	6.667439e+00	
1399	1.237414e-06	6.788924e+00	6.667757e+00	
1400	1.237669e-06	6.789481e+00	6.668394e+00	
1401	1.238179e-06	6.790585e+00	6.669667e+00	
1402	1.238307e-06	6.790860e+00	6.669985e+00	
1403	1.238562e-06	6.791407e+00	6.670620e+00	
1404	1.239072e-06	6.792491e+00	6.671889e+00	
1405	1.239200e-06	6.792761e+00	6.672206e+00	
1406	1.239455e-06	6.793298e+00	6.672839e+00	
1407	1.239965e-06	6.794361e+00	6.674105e+00	
1408	1.240093e-06	6.794625e+00	6.674421e+00	
1409	1.240348e-06	6.795152e+00	6.675052e+00	
1410	1.240858e-06	6.796194e+00	6.676313e+00	
1411	1.240986e-06	6.796453e+00	6.676628e+00	
1412	1.241241e-06	6.796968e+00	6.677258e+00	
1413	1.241751e-06	6.797989e+00	6.678514e+00	
1414	1.241879e-06	6.798242e+00	6.678828e+00	
1415	1.242134e-06	6.798747e+00	6.679455e+00	
1416	1.242644e-06	6.799744e+00	6.680707e+00	
1417	1.242772e-06	6.799992e+00	6.681020e+00	
1418	1.243027e-06	6.800485e+00	6.681645e+00	
1419	1.243537e-06	6.801460e+00	6.682892e+00	
1420	1.243665e-06	6.801702e+00	6.683203e+00	
1421	1.243920e-06	6.802183e+00	6.683825e+00	
1422	1.244430e-06	6.803134e+00	6.685067e+00	
1423	1.244558e-06	6.803370e+00	6.685376e+00	
1424	1.244813e-06	6.803840e+00	6.685996e+00	
1425	1.245324e-06	6.804767e+00	6.687232e+00	
1426	1.245451e-06	6.804996e+00	6.687540e+00	
1427	1.245706e-06	6.805454e+00	6.688156e+00	
1428	1.246217e-06	6.806356e+00	6.689386e+00	
1429	1.246344e-06	6.806579e+00	6.689693e+00	
1430	1.246599e-06	6.807024e+00	6.690306e+00	
1431	1.247110e-06	6.807901e+00	6.691530e+00	
1432	1.247237e-06	6.808118e+00	6.691835e+00	
1433	1.247492e-06	6.808551e+00	6.692445e+00	
1434	1.248003e-06	6.809402e+00	6.693662e+00	
1435	1.248130e-06	6.809613e+00	6.693965e+00	
1436	1.248385e-06	6.810032e+00	6.694572e+00	
1437	1.248896e-06	6.810857e+00	6.695781e+00	
1438	1.249023e-06	6.811061e+00	6.696083e+00	
1439	1.249278e-06	6.811467e+00	6.696686e+00	
1440	1.249789e-06	6.812266e+00	6.697888e+00	
1441	1.249916e-06	6.812463e+00	6.698188e+00	
1442	1.250171e-06	6.812856e+00	6.698787e+00	
1443	1.250682e-06	6.813627e+00	6.699982e+00	
1444	1.250809e-06	6.813818e+00	6.700279e+00	
1445	1.251065e-06	6.814197e+00	6.700875e+00	
1446	1.251575e-06	6.814941e+00	6.702061e+00	

Index   time            v(20)           v(66)           
--------------------------------------------------------------------------------
1447	1.251702e-06	6.815125e+00	6.702357e+00	
1448	1.251958e-06	6.815490e+00	6.702948e+00	
1449	1.252468e-06	6.816207e+00	6.704126e+00	
1450	1.252595e-06	6.816383e+00	6.704419e+00	
1451	1.252851e-06	6.816735e+00	6.705006e+00	
1452	1.253361e-06	6.817423e+00	6.706175e+00	
1453	1.253489e-06	6.817592e+00	6.706466e+00	
1454	1.253744e-06	6.817930e+00	6.707048e+00	
1455	1.254254e-06	6.818589e+00	6.708208e+00	
1456	1.254382e-06	6.818752e+00	6.708497e+00	
1457	1.254637e-06	6.819074e+00	6.709075e+00	
1458	1.255147e-06	6.819705e+00	6.710225e+00	
1459	1.255275e-06	6.819860e+00	6.710512e+00	
1460	1.255530e-06	6.820168e+00	6.711085e+00	
1461	1.256040e-06	6.820770e+00	6.712225e+00	
1462	1.256168e-06	6.820918e+00	6.712509e+00	
1463	1.256423e-06	6.821211e+00	6.713077e+00	
1464	1.256933e-06	6.821783e+00	6.714207e+00	
1465	1.257061e-06	6.821924e+00	6.714489e+00	
1466	1.257316e-06	6.822202e+00	6.715051e+00	
1467	1.257826e-06	6.822744e+00	6.716171e+00	
1468	1.257954e-06	6.822877e+00	6.716450e+00	
1469	1.258209e-06	6.823141e+00	6.717007e+00	
1470	1.258719e-06	6.823653e+00	6.718116e+00	
1471	1.258847e-06	6.823778e+00	6.718392e+00	
1472	1.259102e-06	6.824027e+00	6.718943e+00	
1473	1.259612e-06	6.824508e+00	6.720041e+00	
1474	1.259740e-06	6.824626e+00	6.720314e+00	
1475	1.259995e-06	6.824859e+00	6.720860e+00	
1476	1.260505e-06	6.825309e+00	6.721946e+00	
1477	1.260633e-06	6.825420e+00	6.722217e+00	
1478	1.260888e-06	6.825637e+00	6.722756e+00	
1479	1.261398e-06	6.826057e+00	6.723831e+00	
1480	1.261526e-06	6.826159e+00	6.724098e+00	
1481	1.261781e-06	6.826361e+00	6.724632e+00	
1482	1.262291e-06	6.826749e+00	6.725694e+00	
1483	1.262419e-06	6.826844e+00	6.725958e+00	
1484	1.262674e-06	6.827030e+00	6.726485e+00	
1485	1.263184e-06	6.827387e+00	6.727535e+00	
1486	1.263312e-06	6.827474e+00	6.727795e+00	
1487	1.263567e-06	6.827644e+00	6.728317e+00	
1488	1.264078e-06	6.827969e+00	6.729353e+00	
1489	1.264205e-06	6.828048e+00	6.729611e+00	
1490	1.264460e-06	6.828202e+00	6.730125e+00	
1491	1.264971e-06	6.828495e+00	6.731148e+00	
1492	1.265098e-06	6.828566e+00	6.731403e+00	
1493	1.265353e-06	6.828705e+00	6.731910e+00	
1494	1.265864e-06	6.828965e+00	6.732920e+00	
1495	1.265991e-06	6.829028e+00	6.733171e+00	
1496	1.266246e-06	6.829150e+00	6.733671e+00	
1497	1.266757e-06	6.829378e+00	6.734667e+00	
1498	1.266884e-06	6.829433e+00	6.734914e+00	
1499	1.267139e-06	6.829539e+00	6.735408e+00	
1500	1.267650e-06	6.829735e+00	6.736389e+00	
1501	1.267777e-06	6.829781e+00	6.736633e+00	
1502	1.268032e-06	6.829871e+00	6.737120e+00	
1503	1.268543e-06	6.830033e+00	6.738086e+00	
1504	1.268670e-06	6.830071e+00	6.738326e+00	

Index   time            v(20)           v(66)           
--------------------------------------------------------------------------------
1505	1.268925e-06	6.830145e+00	6.738805e+00	
1506	1.269436e-06	6.830275e+00	6.739757e+00	
1507	1.269563e-06	6.830305e+00	6.739993e+00	
1508	1.269819e-06	6.830361e+00	6.740465e+00	
1509	1.270329e-06	6.830458e+00	6.741401e+00	
1510	1.270456e-06	6.830480e+00	6.741634e+00	
1511	1.270712e-06	6.830520e+00	6.742097e+00	
1512	1.271222e-06	6.830583e+00	6.743018e+00	
1513	1.271349e-06	6.830596e+00	6.743247e+00	
1514	1.271605e-06	6.830620e+00	6.743703e+00	
1515	1.272115e-06	6.830650e+00	6.744608e+00	
1516	1.272243e-06	6.830655e+00	6.744832e+00	
1517	1.272498e-06	6.830662e+00	6.745280e+00	
1518	1.273008e-06	6.830658e+00	6.746169e+00	
1519	1.273136e-06	6.830655e+00	6.746389e+00	
1520	1.273391e-06	6.830645e+00	6.746829e+00	
1521	1.273901e-06	6.830607e+00	6.747701e+00	
1522	1.274029e-06	6.830595e+00	6.747917e+00	
1523	1.274284e-06	6.830569e+00	6.748348e+00	
1524	1.274794e-06	6.830497e+00	6.749204e+00	
1525	1.274922e-06	6.830477e+00	6.749416e+00	
1526	1.275177e-06	6.830433e+00	6.749838e+00	
1527	1.275687e-06	6.830328e+00	6.750677e+00	
1528	1.275815e-06	6.830299e+00	6.750884e+00	
1529	1.276070e-06	6.830238e+00	6.751298e+00	
1530	1.276580e-06	6.830099e+00	6.752119e+00	
1531	1.276708e-06	6.830062e+00	6.752323e+00	
1532	1.276963e-06	6.829984e+00	6.752728e+00	
1533	1.277473e-06	6.829811e+00	6.753531e+00	
1534	1.277601e-06	6.829765e+00	6.753730e+00	
1535	1.277856e-06	6.829670e+00	6.754126e+00	
1536	1.278366e-06	6.829462e+00	6.754911e+00	
1537	1.278494e-06	6.829408e+00	6.755105e+00	
1538	1.278749e-06	6.829296e+00	6.755493e+00	
1539	1.279259e-06	6.829055e+00	6.756259e+00	
1540	1.279387e-06	6.828993e+00	6.756449e+00	
1541	1.279642e-06	6.828865e+00	6.756827e+00	
1542	1.280152e-06	6.828592e+00	6.757575e+00	
1543	1.280280e-06	6.828521e+00	6.757760e+00	
1544	1.280535e-06	6.828377e+00	6.758129e+00	
1545	1.281045e-06	6.828069e+00	6.758858e+00	
1546	1.281173e-06	6.827990e+00	6.759038e+00	
1547	1.281428e-06	6.827827e+00	6.759398e+00	
1548	1.281938e-06	6.827484e+00	6.760108e+00	
1549	1.282066e-06	6.827395e+00	6.760283e+00	
1550	1.282321e-06	6.827215e+00	6.760633e+00	
1551	1.282832e-06	6.826834e+00	6.761323e+00	
1552	1.282959e-06	6.826736e+00	6.761494e+00	
1553	1.283214e-06	6.826538e+00	6.761834e+00	
1554	1.283725e-06	6.826121e+00	6.762505e+00	
1555	1.283852e-06	6.826013e+00	6.762670e+00	
1556	1.284107e-06	6.825796e+00	6.763000e+00	
1557	1.284618e-06	6.825342e+00	6.763651e+00	
1558	1.284745e-06	6.825225e+00	6.763812e+00	
1559	1.285000e-06	6.824990e+00	6.764131e+00	
1560	1.285511e-06	6.824499e+00	6.764762e+00	
1561	1.285638e-06	6.824373e+00	6.764917e+00	
1562	1.285893e-06	6.824118e+00	6.765227e+00	

Index   time            v(20)           v(66)           
--------------------------------------------------------------------------------
1563	1.286404e-06	6.823590e+00	6.765837e+00	
1564	1.286531e-06	6.823455e+00	6.765987e+00	
1565	1.286786e-06	6.823182e+00	6.766286e+00	
1566	1.287297e-06	6.822617e+00	6.766875e+00	
1567	1.287424e-06	6.822473e+00	6.767020e+00	
1568	1.287679e-06	6.822181e+00	6.767308e+00	
1569	1.288190e-06	6.821579e+00	6.767876e+00	
1570	1.288317e-06	6.821425e+00	6.768016e+00	
1571	1.288573e-06	6.821115e+00	6.768293e+00	
1572	1.289083e-06	6.820475e+00	6.768839e+00	
1573	1.289210e-06	6.820312e+00	6.768974e+00	
1574	1.289466e-06	6.819983e+00	6.769241e+00	
1575	1.289976e-06	6.819306e+00	6.769765e+00	
1576	1.290103e-06	6.819134e+00	6.769894e+00	
1577	1.290359e-06	6.818787e+00	6.770150e+00	
1578	1.290869e-06	6.818072e+00	6.770652e+00	
1579	1.290997e-06	6.817891e+00	6.770775e+00	
1580	1.291252e-06	6.817524e+00	6.771020e+00	
1581	1.291762e-06	6.816773e+00	6.771500e+00	
1582	1.291890e-06	6.816582e+00	6.771617e+00	
1583	1.292145e-06	6.816197e+00	6.771851e+00	
1584	1.292655e-06	6.815408e+00	6.772308e+00	
1585	1.292783e-06	6.815207e+00	6.772420e+00	
1586	1.293038e-06	6.814804e+00	6.772642e+00	
1587	1.293548e-06	6.813977e+00	6.773076e+00	
1588	1.293676e-06	6.813768e+00	6.773183e+00	
1589	1.293931e-06	6.813345e+00	6.773393e+00	
1590	1.294441e-06	6.812482e+00	6.773804e+00	
1591	1.294569e-06	6.812263e+00	6.773905e+00	
1592	1.294824e-06	6.811822e+00	6.774104e+00	
1593	1.295334e-06	6.810920e+00	6.774491e+00	
1594	1.295462e-06	6.810692e+00	6.774586e+00	
1595	1.295717e-06	6.810232e+00	6.774773e+00	
1596	1.296227e-06	6.809294e+00	6.775137e+00	
1597	1.296355e-06	6.809056e+00	6.775225e+00	
1598	1.296610e-06	6.808577e+00	6.775401e+00	
1599	1.297120e-06	6.807601e+00	6.775741e+00	
1600	1.297248e-06	6.807354e+00	6.775823e+00	
1601	1.297503e-06	6.806857e+00	6.775986e+00	
1602	1.298013e-06	6.805844e+00	6.776302e+00	
1603	1.298141e-06	6.805587e+00	6.776379e+00	
1604	1.298396e-06	6.805072e+00	6.776530e+00	
1605	1.298906e-06	6.804021e+00	6.776821e+00	
1606	1.299034e-06	6.803755e+00	6.776892e+00	
1607	1.299289e-06	6.803221e+00	6.777031e+00	
1608	1.299799e-06	6.802133e+00	6.777297e+00	
1609	1.299927e-06	6.801858e+00	6.777362e+00	
1610	1.300182e-06	6.801305e+00	6.777488e+00	
1611	1.300692e-06	6.800180e+00	6.777730e+00	
1612	1.300820e-06	6.799895e+00	6.777788e+00	
1613	1.301075e-06	6.799324e+00	6.777902e+00	
1614	1.301586e-06	6.798161e+00	6.778119e+00	
1615	1.301713e-06	6.797867e+00	6.778170e+00	
1616	1.301968e-06	6.797277e+00	6.778271e+00	
1617	1.302479e-06	6.796078e+00	6.778463e+00	
1618	1.302606e-06	6.795775e+00	6.778508e+00	
1619	1.302861e-06	6.795166e+00	6.778597e+00	
1620	1.303372e-06	6.793929e+00	6.778763e+00	

Index   time            v(20)           v(66)           
--------------------------------------------------------------------------------
1621	1.303499e-06	6.793617e+00	6.778802e+00	
1622	1.303754e-06	6.792990e+00	6.778877e+00	
1623	1.304265e-06	6.791716e+00	6.779018e+00	
1624	1.304392e-06	6.791395e+00	6.779050e+00	
1625	1.304647e-06	6.790749e+00	6.779113e+00	
1626	1.305158e-06	6.789438e+00	6.779227e+00	
1627	1.305285e-06	6.789107e+00	6.779253e+00	
1628	1.305540e-06	6.788443e+00	6.779302e+00	
1629	1.306051e-06	6.787095e+00	6.779391e+00	
1630	1.306178e-06	6.786755e+00	6.779410e+00	
1631	1.306433e-06	6.786073e+00	6.779446e+00	
1632	1.306944e-06	6.784688e+00	6.779508e+00	
1633	1.307071e-06	6.784339e+00	6.779521e+00	
1634	1.307327e-06	6.783638e+00	6.779544e+00	
1635	1.307837e-06	6.782216e+00	6.779579e+00	
1636	1.307964e-06	6.781858e+00	6.779585e+00	
1637	1.308220e-06	6.781139e+00	6.779595e+00	
1638	1.308730e-06	6.779680e+00	6.779604e+00	
1639	1.308857e-06	6.779313e+00	6.779603e+00	
1640	1.309113e-06	6.778575e+00	6.779600e+00	
1641	1.309623e-06	6.777080e+00	6.779581e+00	
1642	1.309751e-06	6.776704e+00	6.779574e+00	
1643	1.310006e-06	6.775947e+00	6.779557e+00	
1644	1.310516e-06	6.774416e+00	6.779511e+00	
1645	1.310644e-06	6.774030e+00	6.779497e+00	
1646	1.310899e-06	6.773256e+00	6.779466e+00	
1647	1.311409e-06	6.771688e+00	6.779393e+00	
1648	1.311537e-06	6.771293e+00	6.779372e+00	
1649	1.311792e-06	6.770500e+00	6.779328e+00	
1650	1.312302e-06	6.768896e+00	6.779227e+00	
1651	1.312430e-06	6.768492e+00	6.779199e+00	
1652	1.312685e-06	6.767681e+00	6.779141e+00	
1653	1.313195e-06	6.766040e+00	6.779013e+00	
1654	1.313323e-06	6.765627e+00	6.778978e+00	
1655	1.313578e-06	6.764798e+00	6.778906e+00	
1656	1.314088e-06	6.763121e+00	6.778751e+00	
1657	1.314216e-06	6.762699e+00	6.778709e+00	
1658	1.314471e-06	6.761851e+00	6.778623e+00	
1659	1.314981e-06	6.760138e+00	6.778439e+00	
1660	1.315109e-06	6.759707e+00	6.778390e+00	
1661	1.315364e-06	6.758841e+00	6.778290e+00	
1662	1.315874e-06	6.757092e+00	6.778078e+00	
1663	1.316002e-06	6.756652e+00	6.778022e+00	
1664	1.316257e-06	6.755769e+00	6.777908e+00	
1665	1.316767e-06	6.753983e+00	6.777668e+00	
1666	1.316895e-06	6.753534e+00	6.777605e+00	
1667	1.317150e-06	6.752633e+00	6.777477e+00	
1668	1.317660e-06	6.750811e+00	6.777208e+00	
1669	1.317788e-06	6.750353e+00	6.777138e+00	
1670	1.318043e-06	6.749434e+00	6.776995e+00	
1671	1.318553e-06	6.747577e+00	6.776698e+00	
1672	1.318681e-06	6.747110e+00	6.776621e+00	
1673	1.318936e-06	6.746172e+00	6.776464e+00	
1674	1.319446e-06	6.744280e+00	6.776138e+00	
1675	1.319574e-06	6.743804e+00	6.776053e+00	
[...]
2219	5.300941e-06	2.335942e+00	2.791141e+00	
2220	5.301332e-06	2.330882e+00	2.786156e+00	
2221	5.301430e-06	2.329616e+00	2.784910e+00	
2222	5.301625e-06	2.327085e+00	2.782416e+00	
2223	5.302015e-06	2.322022e+00	2.777426e+00	
2224	5.302797e-06	2.311887e+00	2.767441e+00	
2225	5.302992e-06	2.309354e+00	2.764942e+00	
2226	5.303383e-06	2.304287e+00	2.759945e+00	
2227	5.303480e-06	2.303019e+00	2.758695e+00	
2228	5.303676e-06	2.300485e+00	2.756195e+00	
2229	5.304066e-06	2.295414e+00	2.751193e+00	
2230	5.304848e-06	2.285264e+00	2.741183e+00	
2231	5.305043e-06	2.282727e+00	2.738679e+00	
2232	5.305433e-06	2.277652e+00	2.733669e+00	
2233	5.305531e-06	2.276383e+00	2.732416e+00	
2234	5.305726e-06	2.273844e+00	2.729910e+00	
2235	5.306117e-06	2.268766e+00	2.724896e+00	
2236	5.306898e-06	2.258602e+00	2.714862e+00	
2237	5.307094e-06	2.256061e+00	2.712351e+00	
2238	5.307484e-06	2.250978e+00	2.707330e+00	
2239	5.307582e-06	2.249707e+00	2.706074e+00	
2240	5.307777e-06	2.247165e+00	2.703562e+00	
2241	5.308168e-06	2.242079e+00	2.698536e+00	
2242	5.308949e-06	2.231901e+00	2.688478e+00	
2243	5.309144e-06	2.229357e+00	2.685962e+00	
2244	5.309535e-06	2.224267e+00	2.680928e+00	
2245	5.310316e-06	2.214078e+00	2.670855e+00	
2246	5.310512e-06	2.211532e+00	2.668335e+00	
2247	5.310902e-06	2.206438e+00	2.663293e+00	
2248	5.311000e-06	2.205164e+00	2.662033e+00	
2249	5.311195e-06	2.202616e+00	2.659511e+00	
2250	5.311586e-06	2.197518e+00	2.654466e+00	
2251	5.312367e-06	2.187317e+00	2.644370e+00	
2252	5.312562e-06	2.184767e+00	2.641844e+00	
2253	5.312953e-06	2.179665e+00	2.636791e+00	
2254	5.313734e-06	2.169454e+00	2.626680e+00	
2255	5.313930e-06	2.166902e+00	2.624151e+00	
2256	5.314320e-06	2.161796e+00	2.619091e+00	
2257	5.315101e-06	2.151575e+00	2.608964e+00	
2258	5.315297e-06	2.149022e+00	2.606431e+00	

Index   time            v(20)           v(66)           
--------------------------------------------------------------------------------
2259	5.315687e-06	2.143912e+00	2.601364e+00	
2260	5.316469e-06	2.133682e+00	2.591223e+00	
2261	5.316664e-06	2.131126e+00	2.588687e+00	
2262	5.317055e-06	2.126012e+00	2.583612e+00	
2263	5.317836e-06	2.115774e+00	2.573457e+00	
2264	5.318031e-06	2.113216e+00	2.570917e+00	
2265	5.318422e-06	2.108097e+00	2.565835e+00	
2266	5.319203e-06	2.097851e+00	2.555666e+00	
2267	5.319398e-06	2.095290e+00	2.553122e+00	
2268	5.319789e-06	2.090168e+00	2.548034e+00	
2269	5.320570e-06	2.079913e+00	2.537851e+00	
2270	5.320765e-06	2.077350e+00	2.535303e+00	
2271	5.321156e-06	2.072224e+00	2.530208e+00	
2272	5.321937e-06	2.061961e+00	2.520011e+00	
2273	5.322133e-06	2.059396e+00	2.517460e+00	
2274	5.322523e-06	2.054265e+00	2.512358e+00	
2275	5.323305e-06	2.043994e+00	2.502147e+00	
2276	5.323500e-06	2.041428e+00	2.499593e+00	
2277	5.323890e-06	2.036292e+00	2.494484e+00	
2278	5.324672e-06	2.026014e+00	2.484260e+00	
2279	5.324867e-06	2.023445e+00	2.481703e+00	
2280	5.325258e-06	2.018306e+00	2.476587e+00	
2281	5.326039e-06	2.008020e+00	2.466350e+00	
2282	5.326234e-06	2.005449e+00	2.463790e+00	
2283	5.326625e-06	2.000305e+00	2.458668e+00	
2284	5.327406e-06	1.990012e+00	2.448418e+00	
2285	5.327601e-06	1.987439e+00	2.445854e+00	
2286	5.327992e-06	1.982292e+00	2.440725e+00	
2287	5.328773e-06	1.971990e+00	2.430463e+00	
2288	5.328969e-06	1.969416e+00	2.427896e+00	
2289	5.329359e-06	1.964265e+00	2.422761e+00	
2290	5.330140e-06	1.953956e+00	2.412485e+00	
2291	5.330336e-06	1.951379e+00	2.409915e+00	
2292	5.330726e-06	1.946225e+00	2.404774e+00	
2293	5.331508e-06	1.935909e+00	2.394486e+00	
2294	5.331703e-06	1.933331e+00	2.391913e+00	
2295	5.332094e-06	1.928172e+00	2.386766e+00	
2296	5.332875e-06	1.917850e+00	2.376466e+00	
2297	5.333070e-06	1.915269e+00	2.373889e+00	
2298	5.333461e-06	1.910107e+00	2.368736e+00	
2299	5.334242e-06	1.899778e+00	2.358424e+00	
2300	5.334437e-06	1.897195e+00	2.355845e+00	
2301	5.334828e-06	1.892030e+00	2.350686e+00	
2302	5.335609e-06	1.881694e+00	2.340362e+00	
2303	5.335805e-06	1.879110e+00	2.337780e+00	
2304	5.336195e-06	1.873941e+00	2.332614e+00	
2305	5.336976e-06	1.863598e+00	2.322279e+00	
2306	5.337172e-06	1.861012e+00	2.319694e+00	
2307	5.337562e-06	1.855840e+00	2.314523e+00	
2308	5.338344e-06	1.845490e+00	2.304176e+00	
2309	5.338539e-06	1.842903e+00	2.301588e+00	
2310	5.338930e-06	1.837727e+00	2.296411e+00	
2311	5.339711e-06	1.827372e+00	2.286053e+00	
2312	5.339906e-06	1.824783e+00	2.283463e+00	
2313	5.340297e-06	1.819604e+00	2.278280e+00	
2314	5.341078e-06	1.809242e+00	2.267911e+00	
2315	5.341273e-06	1.806651e+00	2.265318e+00	
2316	5.341664e-06	1.801469e+00	2.260130e+00	

Index   time            v(20)           v(66)           
--------------------------------------------------------------------------------
2317	5.342445e-06	1.791101e+00	2.249750e+00	
2318	5.342640e-06	1.788508e+00	2.247153e+00	
2319	5.343031e-06	1.783323e+00	2.241960e+00	
2320	5.343812e-06	1.772949e+00	2.231569e+00	
2321	5.344008e-06	1.770355e+00	2.228970e+00	
2322	5.344398e-06	1.765167e+00	2.223772e+00	
2323	5.345180e-06	1.754787e+00	2.213371e+00	
2324	5.345375e-06	1.752192e+00	2.210769e+00	
2325	5.345765e-06	1.747000e+00	2.205565e+00	
2326	5.346547e-06	1.736614e+00	2.195153e+00	
2327	5.346742e-06	1.734018e+00	2.192549e+00	
2328	5.347133e-06	1.728824e+00	2.187340e+00	
2329	5.347914e-06	1.718432e+00	2.176918e+00	
2330	5.348109e-06	1.715834e+00	2.174312e+00	
2331	5.348500e-06	1.710637e+00	2.169098e+00	
2332	5.349281e-06	1.700239e+00	2.158666e+00	
2333	5.349476e-06	1.697640e+00	2.156057e+00	
2334	5.349867e-06	1.692440e+00	2.150838e+00	
2335	5.350648e-06	1.682037e+00	2.140396e+00	
2336	5.350844e-06	1.679436e+00	2.137784e+00	
2337	5.351234e-06	1.674234e+00	2.132560e+00	
2338	5.352015e-06	1.663826e+00	2.122109e+00	
2339	5.352211e-06	1.661223e+00	2.119495e+00	
2340	5.352601e-06	1.656018e+00	2.114266e+00	
2341	5.353383e-06	1.645605e+00	2.103805e+00	
2342	5.353578e-06	1.643001e+00	2.101188e+00	
2343	5.353969e-06	1.637794e+00	2.095955e+00	
2344	5.354750e-06	1.627375e+00	2.085485e+00	
2345	5.354945e-06	1.624770e+00	2.082866e+00	
2346	5.355336e-06	1.619560e+00	2.077628e+00	
2347	5.356117e-06	1.609136e+00	2.067148e+00	
2348	5.356312e-06	1.606530e+00	2.064527e+00	
2349	5.356703e-06	1.601317e+00	2.059285e+00	
2350	5.357484e-06	1.590889e+00	2.048796e+00	
2351	5.357680e-06	1.588282e+00	2.046173e+00	
2352	5.358070e-06	1.583066e+00	2.040926e+00	
2353	5.358851e-06	1.572633e+00	2.030428e+00	
2354	5.359047e-06	1.570025e+00	2.027802e+00	
2355	5.359437e-06	1.564807e+00	2.022551e+00	
2356	5.360219e-06	1.554369e+00	2.012045e+00	
2357	5.360414e-06	1.551759e+00	2.009417e+00	
2358	5.360805e-06	1.546539e+00	2.004161e+00	
2359	5.361586e-06	1.536097e+00	1.993646e+00	
2360	5.363148e-06	1.515201e+00	1.972602e+00	
2361	5.363539e-06	1.509978e+00	1.967337e+00	
2362	5.364320e-06	1.499529e+00	1.956806e+00	
2363	5.364515e-06	1.496916e+00	1.954172e+00	
2364	5.364906e-06	1.491689e+00	1.948904e+00	
2365	5.365687e-06	1.481234e+00	1.938364e+00	
2366	5.367250e-06	1.460312e+00	1.917271e+00	
2367	5.367640e-06	1.455083e+00	1.911994e+00	
2368	5.368422e-06	1.444621e+00	1.901439e+00	
2369	5.368617e-06	1.442005e+00	1.898799e+00	
2370	5.369008e-06	1.436772e+00	1.893519e+00	
2371	5.369789e-06	1.426304e+00	1.882956e+00	
2372	5.371351e-06	1.405360e+00	1.861817e+00	
2373	5.371742e-06	1.400124e+00	1.856529e+00	
2374	5.372523e-06	1.389650e+00	1.845952e+00	

Index   time            v(20)           v(66)           
--------------------------------------------------------------------------------
2375	5.374086e-06	1.368689e+00	1.824783e+00	
2376	5.374476e-06	1.363451e+00	1.819488e+00	
2377	5.375258e-06	1.352970e+00	1.808896e+00	
2378	5.376820e-06	1.331995e+00	1.787700e+00	
2379	5.377211e-06	1.326753e+00	1.782399e+00	
2380	5.377992e-06	1.316266e+00	1.771793e+00	
2381	5.379555e-06	1.295277e+00	1.750570e+00	
2382	5.382680e-06	1.253287e+00	1.708081e+00	
2383	5.383461e-06	1.242788e+00	1.697448e+00	
2384	5.385023e-06	1.221779e+00	1.676175e+00	
2385	5.385414e-06	1.216526e+00	1.670854e+00	
2386	5.386195e-06	1.206019e+00	1.660211e+00	
2387	5.387758e-06	1.184997e+00	1.638915e+00	
2388	5.388148e-06	1.179742e+00	1.633589e+00	
2389	5.388930e-06	1.169229e+00	1.622934e+00	
2390	5.390492e-06	1.148197e+00	1.601615e+00	
2391	5.390883e-06	1.142939e+00	1.596283e+00	
2392	5.391664e-06	1.132422e+00	1.585618e+00	
2393	5.393226e-06	1.111381e+00	1.564278e+00	
2394	5.396351e-06	1.069283e+00	1.521563e+00	
2395	5.397133e-06	1.058759e+00	1.510876e+00	
2396	5.398695e-06	1.037703e+00	1.489497e+00	
2397	5.399086e-06	1.032439e+00	1.484150e+00	
2398	5.399867e-06	1.021908e+00	1.473455e+00	
2399	5.401430e-06	1.000844e+00	1.452058e+00	
2400	5.404555e-06	9.587020e-01	1.409233e+00	
2401	5.405336e-06	9.481667e-01	1.398519e+00	
2402	5.406898e-06	9.270908e-01	1.377088e+00	
2403	5.410023e-06	8.849251e-01	1.334200e+00	
2404	5.416273e-06	8.005723e-01	1.248328e+00	
2405	5.417836e-06	7.794783e-01	1.226837e+00	
2406	5.420961e-06	7.372845e-01	1.183844e+00	
2407	5.427211e-06	6.533200e-01	1.097825e+00	
2408	5.439711e-06	4.856913e-01	9.258153e-01	
2409	5.464711e-06	1.730899e-01	5.885845e-01	
2410	5.510043e-06	-1.651308e-01	9.617715e-02	
2411	5.565613e-06	-1.825486e-01	-1.603292e-01	
2412	5.617687e-06	-3.367232e-02	-1.124220e-01	
2413	5.648941e-06	4.390407e-02	-3.316333e-02	
2414	5.680709e-06	8.863201e-02	3.446334e-02	
2415	5.712167e-06	9.767176e-02	7.406640e-02	
2416	5.762765e-06	7.592355e-02	8.552435e-02	
2417	5.802174e-06	5.117343e-02	6.840534e-02	
2418	5.845254e-06	3.497134e-02	4.757826e-02	
2419	5.896545e-06	3.175880e-02	3.467337e-02	
2420	5.954991e-06	3.769734e-02	3.472787e-02	
2421	6.020007e-06	4.378044e-02	4.089681e-02	
2422	6.097434e-06	4.392141e-02	4.418515e-02	
2423	6.189792e-06	4.178732e-02	4.258954e-02	
2424	6.289792e-06	4.116458e-02	4.121168e-02	
2425	6.389792e-06	4.230278e-02	4.185739e-02	
2426	6.489792e-06	4.200495e-02	4.222412e-02	
2427	6.589792e-06	4.205075e-02	4.198136e-02	
2428	6.689792e-06	4.175786e-02	4.188603e-02	
2429	6.789792e-06	4.215918e-02	4.197570e-02	
2430	6.889792e-06	4.183139e-02	4.199993e-02	
2431	6.989792e-06	4.211023e-02	4.196391e-02	
2432	7.089792e-06	4.182133e-02	4.196622e-02	

Index   time            v(20)           v(66)           
--------------------------------------------------------------------------------
2433	7.189792e-06	4.211691e-02	4.196980e-02	
2434	7.289792e-06	4.183660e-02	4.197840e-02	
2435	7.389792e-06	4.209942e-02	4.196554e-02	
2436	7.489792e-06	4.184869e-02	4.197607e-02	
2437	7.589792e-06	4.208784e-02	4.196641e-02	
2438	7.689792e-06	4.186288e-02	4.197748e-02	
2439	7.789792e-06	4.207282e-02	4.196557e-02	
2440	7.889792e-06	4.187751e-02	4.197743e-02	
2441	7.989792e-06	4.205845e-02	4.196573e-02	
2442	8.089792e-06	4.189191e-02	4.197742e-02	
2443	8.189792e-06	4.204422e-02	4.196585e-02	
2444	8.289792e-06	4.190571e-02	4.197712e-02	
2445	8.389792e-06	4.203094e-02	4.196623e-02	
2446	8.489792e-06	4.191844e-02	4.197669e-02	
2447	8.589792e-06	4.201885e-02	4.196673e-02	
2448	8.689792e-06	4.192984e-02	4.197614e-02	
2449	8.789792e-06	4.200821e-02	4.196733e-02	
2450	8.889792e-06	4.193971e-02	4.197552e-02	
2451	8.989792e-06	4.199917e-02	4.196799e-02	
2452	9.089792e-06	4.194796e-02	4.197488e-02	
2453	9.189792e-06	4.199176e-02	4.196866e-02	
2454	9.289792e-06	4.195458e-02	4.197423e-02	
2455	9.389792e-06	4.198596e-02	4.196932e-02	
2456	9.489792e-06	4.195963e-02	4.197361e-02	
2457	9.589792e-06	4.198167e-02	4.196994e-02	
2458	9.689792e-06	4.196323e-02	4.197303e-02	
2459	9.789792e-06	4.197877e-02	4.197050e-02	
2460	9.889792e-06	4.196552e-02	4.197252e-02	
2461	9.989792e-06	4.197707e-02	4.197099e-02	
2462	1.000000e-05	4.196484e-02	4.197098e-02	

--------------------------------------------------------------------------
                    mosamp - mos amplifier - transient

Legend:  + = v(20)            * = v(66)            
--------------------------------------------------------------------------
 time       v(20)   -1.00e+00    1.00e+00    3.00e+00    5.00e+00    7.00e+00   
----------------------|-----------|-----------|-----------|-----------|
 0.000e+00  4.197e-02 .     X     .           .           .           .   
 1.000e-07  6.818e-01 .       * + .           .           .           .   
 2.000e-07  1.675e+00 .           . * +       .           .           .   
 3.000e-07  2.619e+00 .           .      * +  .           .           .   
 4.000e-07  3.391e+00 .           .           * +         .           .   
 5.000e-07  4.040e+00 .           .           .   * +     .           .   
 6.000e-07  4.593e+00 .           .           .       *+  .           .   
 7.000e-07  5.026e+00 .           .           .          *+           .   
 8.000e-07  5.447e+00 .           .           .           .*+         .   
 9.000e-07  5.820e+00 .           .           .           .  *+       .   
 1.000e-06  6.146e+00 .           .           .           .    *+     .   
 1.100e-06  6.436e+00 .           .           .           .      *+   .   
 1.200e-06  6.697e+00 .           .           .           .        *+ .   
 1.300e-06  6.802e+00 .           .           .           .         X .   
 1.400e-06  6.225e+00 .           .           .           .      + *  .   
 1.500e-06  5.203e+00 .           .           .           .+ *        .   
 1.600e-06  4.858e+00 .           .           .          X.           .   
 1.700e-06  4.934e+00 .           .           .          X.           .   
 1.800e-06  5.021e+00 .           .           .          *+           .   
 1.900e-06  5.050e+00 .           .           .           X           .   
 2.000e-06  5.040e+00 .           .           .           X           .   
 2.100e-06  5.027e+00 .           .           .           X           .   
 2.200e-06  5.024e+00 .           .           .           X           .   
 2.300e-06  5.026e+00 .           .           .           X           .   
 2.400e-06  5.028e+00 .           .           .           X           .   
 2.500e-06  5.028e+00 .           .           .           X           .   
 2.600e-06  5.028e+00 .           .           .           X           .   
 2.700e-06  5.028e+00 .           .           .           X           .   
 2.800e-06  5.027e+00 .           .           .           X           .   
 2.900e-06  5.028e+00 .           .           .           X           .   
 3.000e-06  5.028e+00 .           .           .           X           .   
 3.100e-06  5.028e+00 .           .           .           X           .   
 3.200e-06  5.028e+00 .           .           .           X           .   
 3.300e-06  5.028e+00 .           .           .           X           .   
 3.400e-06  5.028e+00 .           .           .           X           .   
 3.500e-06  5.028e+00 .           .           .           X           .   
 3.600e-06  5.028e+00 .           .           .           X           .   
 3.700e-06  5.028e+00 .           .           .           X           .   
 3.800e-06  5.028e+00 .           .           .           X           .   
 3.900e-06  5.028e+00 .           .           .           X           .   
 4.000e-06  5.027e+00 .           .           .           X           .   
 4.100e-06  5.028e+00 .           .           .           X           .   
 4.200e-06  5.027e+00 .           .           .           X           .   
 4.300e-06  5.028e+00 .           .           .           X           .   
 4.400e-06  5.027e+00 .           .           .           X           .   
 4.500e-06  5.028e+00 .           .           .           X           .   
 4.600e-06  5.027e+00 .           .           .           X           .   
 4.700e-06  5.028e+00 .           .           .           X           .   
 4.800e-06  5.027e+00 .           .           .           X           .   
 4.900e-06  5.028e+00 .           .           .           X           .   
 5.000e-06  5.027e+00 .           .           .           X           .   
 5.100e-06  4.546e+00 .           .           .        +* .           .   
----------------------|-----------|-----------|-----------|-----------|
 time       v(20)   -1.00e+00    1.00e+00    3.00e+00    5.00e+00    7.00e+00   

 time       v(20)   -1.00e+00    1.00e+00    3.00e+00    5.00e+00    7.00e+00   
----------------------|-----------|-----------|-----------|-----------|
 5.200e-06  3.573e+00 .           .           .  + *      .           .   
 5.300e-06  2.348e+00 .           .       + * .           .           .   
 5.400e-06  1.020e+00 .           + *         .           .           .   
 5.500e-06 -9.020e-02 .    + *    .           .           .           .   
 5.600e-06 -8.424e-02 .    X      .           .           .           .   
 5.700e-06  9.418e-02 .     X     .           .           .           .   
 5.800e-06  5.254e-02 .     X     .           .           .           .   
 5.900e-06  3.211e-02 .     X     .           .           .           .   
 6.000e-06  4.191e-02 .     X     .           .           .           .   
 6.100e-06  4.386e-02 .     X     .           .           .           .   
 6.200e-06  4.172e-02 .     X     .           .           .           .   
 6.300e-06  4.128e-02 .     X     .           .           .           .   
 6.400e-06  4.227e-02 .     X     .           .           .           .   
 6.500e-06  4.201e-02 .     X     .           .           .           .   
 6.600e-06  4.202e-02 .     X     .           .           .           .   
 6.700e-06  4.180e-02 .     X     .           .           .           .   
 6.800e-06  4.213e-02 .     X     .           .           .           .   
 6.900e-06  4.186e-02 .     X     .           .           .           .   
 7.000e-06  4.208e-02 .     X     .           .           .           .   
 7.100e-06  4.185e-02 .     X     .           .           .           .   
 7.200e-06  4.209e-02 .     X     .           .           .           .   
 7.300e-06  4.186e-02 .     X     .           .           .           .   
 7.400e-06  4.207e-02 .     X     .           .           .           .   
 7.500e-06  4.187e-02 .     X     .           .           .           .   
 7.600e-06  4.206e-02 .     X     .           .           .           .   
 7.700e-06  4.188e-02 .     X     .           .           .           .   
 7.800e-06  4.205e-02 .     X     .           .           .           .   
 7.900e-06  4.190e-02 .     X     .           .           .           .   
 8.000e-06  4.204e-02 .     X     .           .           .           .   
 8.100e-06  4.191e-02 .     X     .           .           .           .   
 8.200e-06  4.203e-02 .     X     .           .           .           .   
 8.300e-06  4.192e-02 .     X     .           .           .           .   
 8.400e-06  4.202e-02 .     X     .           .           .           .   
 8.500e-06  4.193e-02 .     X     .           .           .           .   
 8.600e-06  4.201e-02 .     X     .           .           .           .   
 8.700e-06  4.194e-02 .     X     .           .           .           .   
 8.800e-06  4.200e-02 .     X     .           .           .           .   
 8.900e-06  4.195e-02 .     X     .           .           .           .   
 9.000e-06  4.199e-02 .     X     .           .           .           .   
 9.100e-06  4.195e-02 .     X     .           .           .           .   
 9.200e-06  4.199e-02 .     X     .           .           .           .   
 9.300e-06  4.196e-02 .     X     .           .           .           .   
 9.400e-06  4.198e-02 .     X     .           .           .           .   
 9.500e-06  4.196e-02 .     X     .           .           .           .   
 9.600e-06  4.198e-02 .     X     .           .           .           .   
 9.700e-06  4.196e-02 .     X     .           .           .           .   
 9.800e-06  4.198e-02 .     X     .           .           .           .   
 9.900e-06  4.197e-02 .     X     .           .           .           .   
 1.000e-05  4.196e-02 .     X     .           .           .           .   
----------------------|-----------|-----------|-----------|-----------|
 time       v(20)   -1.00e+00    1.00e+00    3.00e+00    5.00e+00    7.00e+00   




