Warning: vin: no DC value, transient time 0 value used

Circuit: Basic RC circuit

Doing analysis at TEMP = 300.150000 and TNOM = 300.150000

Initial Transient Solution
--------------------------

Node                                   Voltage
----                                   -------
1                                            0
2                                            0
vin#branch                                   0


No. of Data Rows : 87
--------------------------------------------------------------------------
                             Basic RC circuit

Legend:  + = v(2)             * = vin#branch       
--------------------------------------------------------------------------
 time       v(2)    -1.00e+00                 0.00e+00                 1.00e+00 
----------------------|------------------------|------------------------|
 0.000e+00  0.000e+00 .                        X                        . 
 1.000e-01  4.830e-02 .*                       .+                       . 
 2.000e-01  1.385e-01 .  *                     .  +                     . 
 3.000e-01  2.204e-01 .    *                   .    +                   . 
 4.000e-01  2.947e-01 .      *                 .      +                 . 
 5.000e-01  3.619e-01 .        *               .        +               . 
 6.000e-01  4.226e-01 .         *              .         +              . 
 7.000e-01  4.776e-01 .          *             .          +             . 
 8.000e-01  5.274e-01 .            *           .            +           . 
 9.000e-01  5.724e-01 .             *          .             +          . 
 1.000e+00  6.131e-01 .              *         .              +         . 
 1.100e+00  6.500e-01 .               *        .               +        . 
 1.200e+00  6.833e-01 .                *       .                +       . 
 1.300e+00  7.135e-01 .                *       .                +       . 
 1.400e+00  7.407e-01 .                 *      .                 +      . 
 1.500e+00  7.654e-01 .                  *     .                  +     . 
 1.600e+00  7.878e-01 .                  *     .                  +     . 
 1.700e+00  8.080e-01 .                   *    .                   +    . 
 1.800e+00  8.263e-01 .                   *    .                   +    . 
 1.900e+00  8.428e-01 .                    *   .                    +   . 
 2.000e+00  8.578e-01 .                    *   .                    +   . 
 2.100e+00  8.713e-01 .                    *   .                    +   . 
 2.200e+00  8.836e-01 .                     *  .                     +  . 
 2.300e+00  8.947e-01 .                     *  .                     +  . 
 2.400e+00  9.047e-01 .                     *  .                     +  . 
 2.500e+00  9.138e-01 .                     *  .                     +  . 
 2.600e+00  9.220e-01 .                      * .                      + . 
 2.700e+00  9.294e-01 .                      * .                      + . 
 2.800e+00  9.361e-01 .                      * .                      + . 
 2.900e+00  9.422e-01 .                      * .                      + . 
 3.000e+00  9.477e-01 .                      * .                      + . 
 3.100e+00  9.527e-01 .                      * .                      + . 
 3.200e+00  9.572e-01 .                      * .                      + . 
 3.300e+00  9.613e-01 .                       *.                       +. 
 3.400e+00  9.650e-01 .                       *.                       +. 
 3.500e+00  9.683e-01 .                       *.                       +. 
 3.600e+00  9.713e-01 .                       *.                       +. 
 3.700e+00  9.741e-01 .                       *.                       +. 
 3.800e+00  9.765e-01 .                       *.                       +. 
 3.900e+00  9.788e-01 .                       *.                       +. 
 4.000e+00  9.808e-01 .                       *.                       +. 
 4.100e+00  9.826e-01 .                       *.                       +. 
 4.200e+00  9.843e-01 .                       *.                       +. 
 4.300e+00  9.858e-01 .                       *.                       +. 
 4.400e+00  9.871e-01 .                       *.                       +. 
 4.500e+00  9.884e-01 .                       *.                       +. 
 4.600e+00  9.895e-01 .                       *.                       +. 
 4.700e+00  9.905e-01 .                       *.                       +. 
 4.800e+00  9.914e-01 .                       *.                       +. 
 4.900e+00  9.922e-01 .                       *.                       +. 
 5.000e+00  9.929e-01 .                       *.                       +. 
 5.100e+00  9.936e-01 .                       *.                       +. 
----------------------|------------------------|------------------------|
 time       v(2)    -1.00e+00                 0.00e+00                 1.00e+00 

 time       v(2)    -1.00e+00                 0.00e+00                 1.00e+00 
----------------------|------------------------|------------------------|
 5.200e+00  9.942e-01 .                       *.                       +. 
 5.300e+00  9.948e-01 .                       *.                       +. 
 5.400e+00  9.953e-01 .                       *.                       +. 
 5.500e+00  9.957e-01 .                       *.                       +. 
 5.600e+00  9.961e-01 .                       *.                       +. 
 5.700e+00  9.965e-01 .                       *.                       +. 
 5.800e+00  9.968e-01 .                       *.                       +. 
 5.900e+00  9.971e-01 .                       *.                       +. 
 6.000e+00  9.974e-01 .                       *.                       +. 
 6.100e+00  9.977e-01 .                       *.                       +. 
 6.200e+00  9.979e-01 .                       *.                       +. 
 6.300e+00  9.981e-01 .                       *.                       +. 
 6.400e+00  9.983e-01 .                       *.                       +. 
 6.500e+00  9.984e-01 .                       *.                       +. 
 6.600e+00  9.986e-01 .                       *.                       +. 
 6.700e+00  9.987e-01 .                       *.                       +. 
 6.800e+00  9.988e-01 .                       *.                       +. 
 6.900e+00  9.989e-01 .                       *.                       +. 
 7.000e+00  9.990e-01 .                       *.                       +. 
----------------------|------------------------|------------------------|
 time       v(2)    -1.00e+00                 0.00e+00                 1.00e+00 




