
Circuit: ***  For BSIM3V3  general purpose check (Id-Vg) for Pmosfet***

Circuit: ***  For BSIM3V3  general purpose check (Id-Vg) for Pmosfet***


         ***  For BSIM3V3  general purpose check (Id-Vg) for Pmosfet***
--------------------------------------------------------------------------------
Index   sweep           v(2)            vds#branch      
--------------------------------------------------------------------------------
0	0.000000e+00	-1.000000e-01	4.216365e-11	
1	-5.000000e-02	-1.000000e-01	1.148173e-10	
2	-1.000000e-01	-1.000000e-01	3.126477e-10	
3	-1.500000e-01	-1.000000e-01	8.491441e-10	
4	-2.000000e-01	-1.000000e-01	2.294719e-09	
5	-2.500000e-01	-1.000000e-01	6.151140e-09	
6	-3.000000e-01	-1.000000e-01	1.628862e-08	
7	-3.500000e-01	-1.000000e-01	4.240512e-08	
8	-4.000000e-01	-1.000000e-01	1.080618e-07	
9	-4.500000e-01	-1.000000e-01	2.690047e-07	
10	-5.000000e-01	-1.000000e-01	6.534542e-07	
11	-5.500000e-01	-1.000000e-01	1.532386e-06	
12	-6.000000e-01	-1.000000e-01	3.350789e-06	
13	-6.500000e-01	-1.000000e-01	6.500495e-06	
14	-7.000000e-01	-1.000000e-01	1.092740e-05	
15	-7.500000e-01	-1.000000e-01	1.619791e-05	
16	-8.000000e-01	-1.000000e-01	2.185142e-05	
17	-8.500000e-01	-1.000000e-01	2.757139e-05	
18	-9.000000e-01	-1.000000e-01	3.319024e-05	
19	-9.500000e-01	-1.000000e-01	3.864021e-05	
20	-1.000000e+00	-1.000000e-01	4.390651e-05	
21	-1.050000e+00	-1.000000e-01	4.899717e-05	
22	-1.100000e+00	-1.000000e-01	5.392649e-05	
23	-1.150000e+00	-1.000000e-01	5.871127e-05	
24	-1.200000e+00	-1.000000e-01	6.336515e-05	
25	-1.250000e+00	-1.000000e-01	6.789908e-05	
26	-1.300000e+00	-1.000000e-01	7.232168e-05	
27	-1.350000e+00	-1.000000e-01	7.663971e-05	
28	-1.400000e+00	-1.000000e-01	8.085859e-05	
29	-1.450000e+00	-1.000000e-01	8.498275e-05	
30	-1.500000e+00	-1.000000e-01	8.901594e-05	
31	-1.550000e+00	-1.000000e-01	9.296143e-05	
32	-1.600000e+00	-1.000000e-01	9.682216e-05	
33	-1.650000e+00	-1.000000e-01	1.006008e-04	
34	-1.700000e+00	-1.000000e-01	1.042999e-04	
35	-1.750000e+00	-1.000000e-01	1.079217e-04	
36	-1.800000e+00	-1.000000e-01	1.114686e-04	
37	-1.850000e+00	-1.000000e-01	1.149427e-04	
38	-1.900000e+00	-1.000000e-01	1.183460e-04	
39	-1.950000e+00	-1.000000e-01	1.216805e-04	
40	-2.000000e+00	-1.000000e-01	1.249481e-04	
41	-2.050000e+00	-1.000000e-01	1.281508e-04	
42	-2.100000e+00	-1.000000e-01	1.312902e-04	
43	-2.150000e+00	-1.000000e-01	1.343681e-04	
44	-2.200000e+00	-1.000000e-01	1.373861e-04	
45	-2.250000e+00	-1.000000e-01	1.403458e-04	
46	-2.300000e+00	-1.000000e-01	1.432489e-04	
47	-2.350000e+00	-1.000000e-01	1.460967e-04	
48	-2.400000e+00	-1.000000e-01	1.488908e-04	
49	-2.450000e+00	-1.000000e-01	1.516325e-04	
50	-2.500000e+00	-1.000000e-01	1.543232e-04	
51	-2.550000e+00	-1.000000e-01	1.569641e-04	
52	-2.600000e+00	-1.000000e-01	1.595567e-04	
53	-2.650000e+00	-1.000000e-01	1.621020e-04	
54	-2.700000e+00	-1.000000e-01	1.646012e-04	

Index   sweep           v(2)            vds#branch      
--------------------------------------------------------------------------------
55	-2.750000e+00	-1.000000e-01	1.670556e-04	
56	-2.800000e+00	-1.000000e-01	1.694662e-04	
57	-2.850000e+00	-1.000000e-01	1.718340e-04	
58	-2.900000e+00	-1.000000e-01	1.741602e-04	
59	-2.950000e+00	-1.000000e-01	1.764457e-04	
60	-3.000000e+00	-1.000000e-01	1.786915e-04	
61	-3.050000e+00	-1.000000e-01	1.808986e-04	
62	-3.100000e+00	-1.000000e-01	1.830678e-04	
63	-3.150000e+00	-1.000000e-01	1.852000e-04	
64	-3.200000e+00	-1.000000e-01	1.872961e-04	
65	-3.250000e+00	-1.000000e-01	1.893570e-04	
66	-3.300000e+00	-1.000000e-01	1.913834e-04	
67	-3.350000e+00	-1.000000e-01	1.933762e-04	
68	-3.400000e+00	-1.000000e-01	1.953360e-04	
69	-3.450000e+00	-1.000000e-01	1.972636e-04	
70	-3.500000e+00	-1.000000e-01	1.991598e-04	
71	0.000000e+00	-1.000000e-01	2.510677e-12	
72	-5.000000e-02	-1.000000e-01	5.099061e-12	
73	-1.000000e-01	-1.000000e-01	1.283263e-11	
74	-1.500000e-01	-1.000000e-01	3.591505e-11	
75	-2.000000e-01	-1.000000e-01	1.046871e-10	
76	-2.500000e-01	-1.000000e-01	3.089679e-10	
77	-3.000000e-01	-1.000000e-01	9.126758e-10	
78	-3.500000e-01	-1.000000e-01	2.681798e-09	
79	-4.000000e-01	-1.000000e-01	7.796398e-09	
80	-4.500000e-01	-1.000000e-01	2.228283e-08	
81	-5.000000e-01	-1.000000e-01	6.217000e-08	
82	-5.500000e-01	-1.000000e-01	1.683448e-07	
83	-6.000000e-01	-1.000000e-01	4.410196e-07	
84	-6.500000e-01	-1.000000e-01	1.108727e-06	
85	-7.000000e-01	-1.000000e-01	2.591680e-06	
86	-7.500000e-01	-1.000000e-01	5.334153e-06	
87	-8.000000e-01	-1.000000e-01	9.361478e-06	
88	-8.500000e-01	-1.000000e-01	1.425735e-05	
89	-9.000000e-01	-1.000000e-01	1.955438e-05	
90	-9.500000e-01	-1.000000e-01	2.493812e-05	
91	-1.000000e+00	-1.000000e-01	3.024825e-05	
92	-1.050000e+00	-1.000000e-01	3.542195e-05	
93	-1.100000e+00	-1.000000e-01	4.044505e-05	
94	-1.150000e+00	-1.000000e-01	4.532315e-05	
95	-1.200000e+00	-1.000000e-01	5.006676e-05	
96	-1.250000e+00	-1.000000e-01	5.468776e-05	
97	-1.300000e+00	-1.000000e-01	5.919617e-05	
98	-1.350000e+00	-1.000000e-01	6.359970e-05	
99	-1.400000e+00	-1.000000e-01	6.790439e-05	
100	-1.450000e+00	-1.000000e-01	7.211500e-05	
101	-1.500000e+00	-1.000000e-01	7.623543e-05	
102	-1.550000e+00	-1.000000e-01	8.026893e-05	
103	-1.600000e+00	-1.000000e-01	8.421839e-05	
104	-1.650000e+00	-1.000000e-01	8.808639e-05	
105	-1.700000e+00	-1.000000e-01	9.187531e-05	
106	-1.750000e+00	-1.000000e-01	9.558740e-05	
107	-1.800000e+00	-1.000000e-01	9.922479e-05	
108	-1.850000e+00	-1.000000e-01	1.027895e-04	
109	-1.900000e+00	-1.000000e-01	1.062836e-04	
110	-1.950000e+00	-1.000000e-01	1.097089e-04	
111	-2.000000e+00	-1.000000e-01	1.130673e-04	
112	-2.050000e+00	-1.000000e-01	1.163606e-04	

Index   sweep           v(2)            vds#branch      
--------------------------------------------------------------------------------
113	-2.100000e+00	-1.000000e-01	1.195904e-04	
114	-2.150000e+00	-1.000000e-01	1.227585e-04	
115	-2.200000e+00	-1.000000e-01	1.258664e-04	
116	-2.250000e+00	-1.000000e-01	1.289158e-04	
117	-2.300000e+00	-1.000000e-01	1.319081e-04	
118	-2.350000e+00	-1.000000e-01	1.348448e-04	
119	-2.400000e+00	-1.000000e-01	1.377274e-04	
120	-2.450000e+00	-1.000000e-01	1.405571e-04	
121	-2.500000e+00	-1.000000e-01	1.433354e-04	
122	-2.550000e+00	-1.000000e-01	1.460635e-04	
123	-2.600000e+00	-1.000000e-01	1.487426e-04	
124	-2.650000e+00	-1.000000e-01	1.513741e-04	
125	-2.700000e+00	-1.000000e-01	1.539589e-04	
126	-2.750000e+00	-1.000000e-01	1.564983e-04	
127	-2.800000e+00	-1.000000e-01	1.589934e-04	
128	-2.850000e+00	-1.000000e-01	1.614452e-04	
129	-2.900000e+00	-1.000000e-01	1.638548e-04	
130	-2.950000e+00	-1.000000e-01	1.662230e-04	
131	-3.000000e+00	-1.000000e-01	1.685511e-04	
132	-3.050000e+00	-1.000000e-01	1.708397e-04	
133	-3.100000e+00	-1.000000e-01	1.730900e-04	
134	-3.150000e+00	-1.000000e-01	1.753026e-04	
135	-3.200000e+00	-1.000000e-01	1.774786e-04	
136	-3.250000e+00	-1.000000e-01	1.796187e-04	
137	-3.300000e+00	-1.000000e-01	1.817237e-04	
138	-3.350000e+00	-1.000000e-01	1.837944e-04	
139	-3.400000e+00	-1.000000e-01	1.858317e-04	
140	-3.450000e+00	-1.000000e-01	1.878361e-04	
141	-3.500000e+00	-1.000000e-01	1.898084e-04	
142	0.000000e+00	-1.000000e-01	2.297467e-12	
143	-5.000000e-02	-1.000000e-01	2.398043e-12	
144	-1.000000e-01	-1.000000e-01	3.081968e-12	
145	-1.500000e-01	-1.000000e-01	4.962173e-12	
146	-2.000000e-01	-1.000000e-01	1.089240e-11	
147	-2.500000e-01	-1.000000e-01	2.957712e-11	
148	-3.000000e-01	-1.000000e-01	8.834078e-11	
149	-3.500000e-01	-1.000000e-01	2.725622e-10	
150	-4.000000e-01	-1.000000e-01	8.468904e-10	
151	-4.500000e-01	-1.000000e-01	2.620585e-09	
152	-5.000000e-01	-1.000000e-01	8.013896e-09	
153	-5.500000e-01	-1.000000e-01	2.402392e-08	
154	-6.000000e-01	-1.000000e-01	6.997736e-08	
155	-6.500000e-01	-1.000000e-01	1.966272e-07	
156	-7.000000e-01	-1.000000e-01	5.303916e-07	
157	-7.500000e-01	-1.000000e-01	1.353969e-06	
158	-8.000000e-01	-1.000000e-01	3.132923e-06	
159	-8.500000e-01	-1.000000e-01	6.215451e-06	
160	-9.000000e-01	-1.000000e-01	1.043488e-05	
161	-9.500000e-01	-1.000000e-01	1.531641e-05	
162	-1.000000e+00	-1.000000e-01	2.045197e-05	
163	-1.050000e+00	-1.000000e-01	2.560430e-05	
164	-1.100000e+00	-1.000000e-01	3.066621e-05	
165	-1.150000e+00	-1.000000e-01	3.560168e-05	
166	-1.200000e+00	-1.000000e-01	4.040635e-05	
167	-1.250000e+00	-1.000000e-01	4.508713e-05	
168	-1.300000e+00	-1.000000e-01	4.965216e-05	
169	-1.350000e+00	-1.000000e-01	5.411090e-05	
170	-1.400000e+00	-1.000000e-01	5.847028e-05	

Index   sweep           v(2)            vds#branch      
--------------------------------------------------------------------------------
171	-1.450000e+00	-1.000000e-01	6.273573e-05	
172	-1.500000e+00	-1.000000e-01	6.691153e-05	
173	-1.550000e+00	-1.000000e-01	7.100115e-05	
174	-1.600000e+00	-1.000000e-01	7.500751e-05	
175	-1.650000e+00	-1.000000e-01	7.893318e-05	
176	-1.700000e+00	-1.000000e-01	8.278048e-05	
177	-1.750000e+00	-1.000000e-01	8.655158e-05	
178	-1.800000e+00	-1.000000e-01	9.024853e-05	
179	-1.850000e+00	-1.000000e-01	9.387330e-05	
180	-1.900000e+00	-1.000000e-01	9.742776e-05	
181	-1.950000e+00	-1.000000e-01	1.009138e-04	
182	-2.000000e+00	-1.000000e-01	1.043331e-04	
183	-2.050000e+00	-1.000000e-01	1.076874e-04	
184	-2.100000e+00	-1.000000e-01	1.109784e-04	
185	-2.150000e+00	-1.000000e-01	1.142077e-04	
186	-2.200000e+00	-1.000000e-01	1.173770e-04	
187	-2.250000e+00	-1.000000e-01	1.204876e-04	
188	-2.300000e+00	-1.000000e-01	1.235411e-04	
189	-2.350000e+00	-1.000000e-01	1.265390e-04	
190	-2.400000e+00	-1.000000e-01	1.294825e-04	
191	-2.450000e+00	-1.000000e-01	1.323732e-04	
192	-2.500000e+00	-1.000000e-01	1.352122e-04	
193	-2.550000e+00	-1.000000e-01	1.380008e-04	
194	-2.600000e+00	-1.000000e-01	1.407402e-04	
195	-2.650000e+00	-1.000000e-01	1.434317e-04	
196	-2.700000e+00	-1.000000e-01	1.460764e-04	
197	-2.750000e+00	-1.000000e-01	1.486754e-04	
198	-2.800000e+00	-1.000000e-01	1.512298e-04	
199	-2.850000e+00	-1.000000e-01	1.537407e-04	
200	-2.900000e+00	-1.000000e-01	1.562090e-04	
201	-2.950000e+00	-1.000000e-01	1.586357e-04	
202	-3.000000e+00	-1.000000e-01	1.610218e-04	
203	-3.050000e+00	-1.000000e-01	1.633683e-04	
204	-3.100000e+00	-1.000000e-01	1.656760e-04	
205	-3.150000e+00	-1.000000e-01	1.679458e-04	
206	-3.200000e+00	-1.000000e-01	1.701785e-04	
207	-3.250000e+00	-1.000000e-01	1.723750e-04	
208	-3.300000e+00	-1.000000e-01	1.745362e-04	
209	-3.350000e+00	-1.000000e-01	1.766626e-04	
210	-3.400000e+00	-1.000000e-01	1.787552e-04	
211	-3.450000e+00	-1.000000e-01	1.808146e-04	
212	-3.500000e+00	-1.000000e-01	1.828416e-04	
213	0.000000e+00	-1.000000e-01	3.219439e-12	
214	-5.000000e-02	-1.000000e-01	3.230666e-12	
215	-1.000000e-01	-1.000000e-01	3.311877e-12	
216	-1.500000e-01	-1.000000e-01	3.544657e-12	
217	-2.000000e-01	-1.000000e-01	4.309105e-12	
218	-2.500000e-01	-1.000000e-01	6.818518e-12	
219	-3.000000e-01	-1.000000e-01	1.504989e-11	
220	-3.500000e-01	-1.000000e-01	4.201419e-11	
221	-4.000000e-01	-1.000000e-01	1.301308e-10	
222	-4.500000e-01	-1.000000e-01	4.168519e-10	
223	-5.000000e-01	-1.000000e-01	1.342790e-09	
224	-5.500000e-01	-1.000000e-01	4.294607e-09	
225	-6.000000e-01	-1.000000e-01	1.350781e-08	
226	-6.500000e-01	-1.000000e-01	4.136009e-08	
227	-7.000000e-01	-1.000000e-01	1.220668e-07	
228	-7.500000e-01	-1.000000e-01	3.448371e-07	

Index   sweep           v(2)            vds#branch      
--------------------------------------------------------------------------------
229	-8.000000e-01	-1.000000e-01	9.236915e-07	
230	-8.500000e-01	-1.000000e-01	2.269888e-06	
231	-9.000000e-01	-1.000000e-01	4.826328e-06	
232	-9.500000e-01	-1.000000e-01	8.603538e-06	
233	-1.000000e+00	-1.000000e-01	1.317742e-05	
234	-1.050000e+00	-1.000000e-01	1.810462e-05	
235	-1.100000e+00	-1.000000e-01	2.310702e-05	
236	-1.150000e+00	-1.000000e-01	2.805170e-05	
237	-1.200000e+00	-1.000000e-01	3.288925e-05	
238	-1.250000e+00	-1.000000e-01	3.760871e-05	
239	-1.300000e+00	-1.000000e-01	4.221359e-05	
240	-1.350000e+00	-1.000000e-01	4.671065e-05	
241	-1.400000e+00	-1.000000e-01	5.110719e-05	
242	-1.450000e+00	-1.000000e-01	5.540965e-05	
243	-1.500000e+00	-1.000000e-01	5.962282e-05	
244	-1.550000e+00	-1.000000e-01	6.375046e-05	
245	-1.600000e+00	-1.000000e-01	6.779563e-05	
246	-1.650000e+00	-1.000000e-01	7.176095e-05	
247	-1.700000e+00	-1.000000e-01	7.564871e-05	
248	-1.750000e+00	-1.000000e-01	7.946101e-05	
249	-1.800000e+00	-1.000000e-01	8.319983e-05	
250	-1.850000e+00	-1.000000e-01	8.686705e-05	
251	-1.900000e+00	-1.000000e-01	9.046448e-05	
252	-1.950000e+00	-1.000000e-01	9.399389e-05	
253	-2.000000e+00	-1.000000e-01	9.745698e-05	
254	-2.050000e+00	-1.000000e-01	1.008554e-04	
255	-2.100000e+00	-1.000000e-01	1.041908e-04	
256	-2.150000e+00	-1.000000e-01	1.074647e-04	
257	-2.200000e+00	-1.000000e-01	1.106787e-04	
258	-2.250000e+00	-1.000000e-01	1.138343e-04	
259	-2.300000e+00	-1.000000e-01	1.169328e-04	
260	-2.350000e+00	-1.000000e-01	1.199757e-04	
261	-2.400000e+00	-1.000000e-01	1.229644e-04	
262	-2.450000e+00	-1.000000e-01	1.259002e-04	
263	-2.500000e+00	-1.000000e-01	1.287843e-04	
264	-2.550000e+00	-1.000000e-01	1.316179e-04	
265	-2.600000e+00	-1.000000e-01	1.344024e-04	
266	-2.650000e+00	-1.000000e-01	1.371389e-04	
267	-2.700000e+00	-1.000000e-01	1.398284e-04	
268	-2.750000e+00	-1.000000e-01	1.424722e-04	
269	-2.800000e+00	-1.000000e-01	1.450712e-04	
270	-2.850000e+00	-1.000000e-01	1.476266e-04	
271	-2.900000e+00	-1.000000e-01	1.501392e-04	
272	-2.950000e+00	-1.000000e-01	1.526102e-04	
273	-3.000000e+00	-1.000000e-01	1.550403e-04	
274	-3.050000e+00	-1.000000e-01	1.574306e-04	
275	-3.100000e+00	-1.000000e-01	1.597820e-04	
276	-3.150000e+00	-1.000000e-01	1.620953e-04	
277	-3.200000e+00	-1.000000e-01	1.643713e-04	
278	-3.250000e+00	-1.000000e-01	1.666109e-04	
279	-3.300000e+00	-1.000000e-01	1.688148e-04	
280	-3.350000e+00	-1.000000e-01	1.709839e-04	
281	-3.400000e+00	-1.000000e-01	1.731189e-04	
282	-3.450000e+00	-1.000000e-01	1.752205e-04	
283	-3.500000e+00	-1.000000e-01	1.772894e-04	
284	0.000000e+00	-1.000000e-01	4.211366e-12	
285	-5.000000e-02	-1.000000e-01	4.213037e-12	
286	-1.000000e-01	-1.000000e-01	4.225765e-12	

Index   sweep           v(2)            vds#branch      
--------------------------------------------------------------------------------
287	-1.500000e-01	-1.000000e-01	4.263546e-12	
288	-2.000000e-01	-1.000000e-01	4.391850e-12	
289	-2.500000e-01	-1.000000e-01	4.827496e-12	
290	-3.000000e-01	-1.000000e-01	6.306194e-12	
291	-3.500000e-01	-1.000000e-01	1.132217e-11	
292	-4.000000e-01	-1.000000e-01	2.831770e-11	
293	-4.500000e-01	-1.000000e-01	8.578334e-11	
294	-5.000000e-01	-1.000000e-01	2.793518e-10	
295	-5.500000e-01	-1.000000e-01	9.269475e-10	
296	-6.000000e-01	-1.000000e-01	3.067769e-09	
297	-6.500000e-01	-1.000000e-01	1.000356e-08	
298	-7.000000e-01	-1.000000e-01	3.177330e-08	
299	-7.500000e-01	-1.000000e-01	9.715393e-08	
300	-8.000000e-01	-1.000000e-01	2.834304e-07	
301	-8.500000e-01	-1.000000e-01	7.816760e-07	
302	-9.000000e-01	-1.000000e-01	1.978017e-06	
303	-9.500000e-01	-1.000000e-01	4.331095e-06	
304	-1.000000e+00	-1.000000e-01	7.907703e-06	
305	-1.050000e+00	-1.000000e-01	1.230934e-05	
306	-1.100000e+00	-1.000000e-01	1.708956e-05	
307	-1.150000e+00	-1.000000e-01	2.196389e-05	
308	-1.200000e+00	-1.000000e-01	2.679540e-05	
309	-1.250000e+00	-1.000000e-01	3.153211e-05	
310	-1.300000e+00	-1.000000e-01	3.616105e-05	
311	-1.350000e+00	-1.000000e-01	4.068406e-05	
312	-1.400000e+00	-1.000000e-01	4.510662e-05	
313	-1.450000e+00	-1.000000e-01	4.943455e-05	
314	-1.500000e+00	-1.000000e-01	5.367351e-05	
315	-1.550000e+00	-1.000000e-01	5.782757e-05	
316	-1.600000e+00	-1.000000e-01	6.189997e-05	
317	-1.650000e+00	-1.000000e-01	6.589338e-05	
318	-1.700000e+00	-1.000000e-01	6.981008e-05	
319	-1.750000e+00	-1.000000e-01	7.365214e-05	
320	-1.800000e+00	-1.000000e-01	7.742145e-05	
321	-1.850000e+00	-1.000000e-01	8.111984e-05	
322	-1.900000e+00	-1.000000e-01	8.474903e-05	
323	-1.950000e+00	-1.000000e-01	8.831072e-05	
324	-2.000000e+00	-1.000000e-01	9.180656e-05	
325	-2.050000e+00	-1.000000e-01	9.523814e-05	
326	-2.100000e+00	-1.000000e-01	9.860703e-05	
327	-2.150000e+00	-1.000000e-01	1.019148e-04	
328	-2.200000e+00	-1.000000e-01	1.051628e-04	
329	-2.250000e+00	-1.000000e-01	1.083526e-04	
330	-2.300000e+00	-1.000000e-01	1.114856e-04	
331	-2.350000e+00	-1.000000e-01	1.145632e-04	
332	-2.400000e+00	-1.000000e-01	1.175866e-04	
333	-2.450000e+00	-1.000000e-01	1.205572e-04	
334	-2.500000e+00	-1.000000e-01	1.234763e-04	
335	-2.550000e+00	-1.000000e-01	1.263450e-04	
336	-2.600000e+00	-1.000000e-01	1.291645e-04	
337	-2.650000e+00	-1.000000e-01	1.319360e-04	
338	-2.700000e+00	-1.000000e-01	1.346606e-04	
339	-2.750000e+00	-1.000000e-01	1.373394e-04	
340	-2.800000e+00	-1.000000e-01	1.399735e-04	
341	-2.850000e+00	-1.000000e-01	1.425638e-04	
342	-2.900000e+00	-1.000000e-01	1.451113e-04	
343	-2.950000e+00	-1.000000e-01	1.476171e-04	
344	-3.000000e+00	-1.000000e-01	1.500821e-04	

Index   sweep           v(2)            vds#branch      
--------------------------------------------------------------------------------
345	-3.050000e+00	-1.000000e-01	1.525071e-04	
346	-3.100000e+00	-1.000000e-01	1.548930e-04	
347	-3.150000e+00	-1.000000e-01	1.572408e-04	
348	-3.200000e+00	-1.000000e-01	1.595512e-04	
349	-3.250000e+00	-1.000000e-01	1.618250e-04	
350	-3.300000e+00	-1.000000e-01	1.640631e-04	
351	-3.350000e+00	-1.000000e-01	1.662662e-04	
352	-3.400000e+00	-1.000000e-01	1.684351e-04	
353	-3.450000e+00	-1.000000e-01	1.705704e-04	
354	-3.500000e+00	-1.000000e-01	1.726728e-04	
355	0.000000e+00	-1.000000e-01	5.210237e-12	
356	-5.000000e-02	-1.000000e-01	5.210534e-12	
357	-1.000000e-01	-1.000000e-01	5.212907e-12	
358	-1.500000e-01	-1.000000e-01	5.220185e-12	
359	-2.000000e-01	-1.000000e-01	5.245685e-12	
360	-2.500000e-01	-1.000000e-01	5.335025e-12	
361	-3.000000e-01	-1.000000e-01	5.647973e-12	
362	-3.500000e-01	-1.000000e-01	6.743857e-12	
363	-4.000000e-01	-1.000000e-01	1.057922e-11	
364	-4.500000e-01	-1.000000e-01	2.398769e-11	
365	-5.000000e-01	-1.000000e-01	7.077009e-11	
366	-5.500000e-01	-1.000000e-01	2.333916e-10	
367	-6.000000e-01	-1.000000e-01	7.948751e-10	
368	-6.500000e-01	-1.000000e-01	2.710207e-09	
369	-7.000000e-01	-1.000000e-01	9.109305e-09	
370	-7.500000e-01	-1.000000e-01	2.978799e-08	
371	-8.000000e-01	-1.000000e-01	9.352044e-08	
372	-8.500000e-01	-1.000000e-01	2.789530e-07	
373	-9.000000e-01	-1.000000e-01	7.822362e-07	
374	-9.500000e-01	-1.000000e-01	1.997099e-06	
375	-1.000000e+00	-1.000000e-01	4.371460e-06	
376	-1.050000e+00	-1.000000e-01	7.935383e-06	
377	-1.100000e+00	-1.000000e-01	1.227576e-05	
378	-1.150000e+00	-1.000000e-01	1.696155e-05	
379	-1.200000e+00	-1.000000e-01	2.172868e-05	
380	-1.250000e+00	-1.000000e-01	2.645353e-05	
381	-1.300000e+00	-1.000000e-01	3.109019e-05	
382	-1.350000e+00	-1.000000e-01	3.562731e-05	
383	-1.400000e+00	-1.000000e-01	4.006632e-05	
384	-1.450000e+00	-1.000000e-01	4.441169e-05	
385	-1.500000e+00	-1.000000e-01	4.866819e-05	
386	-1.550000e+00	-1.000000e-01	5.284052e-05	
387	-1.600000e+00	-1.000000e-01	5.693206e-05	
388	-1.650000e+00	-1.000000e-01	6.094553e-05	
389	-1.700000e+00	-1.000000e-01	6.488320e-05	
390	-1.750000e+00	-1.000000e-01	6.874709e-05	
391	-1.800000e+00	-1.000000e-01	7.253902e-05	
392	-1.850000e+00	-1.000000e-01	7.626075e-05	
393	-1.900000e+00	-1.000000e-01	7.991392e-05	
394	-1.950000e+00	-1.000000e-01	8.350017e-05	
395	-2.000000e+00	-1.000000e-01	8.702107e-05	
396	-2.050000e+00	-1.000000e-01	9.047818e-05	
397	-2.100000e+00	-1.000000e-01	9.387299e-05	
398	-2.150000e+00	-1.000000e-01	9.720700e-05	
399	-2.200000e+00	-1.000000e-01	1.004816e-04	
400	-2.250000e+00	-1.000000e-01	1.036983e-04	
401	-2.300000e+00	-1.000000e-01	1.068585e-04	
402	-2.350000e+00	-1.000000e-01	1.099633e-04	

Index   sweep           v(2)            vds#branch      
--------------------------------------------------------------------------------
403	-2.400000e+00	-1.000000e-01	1.130143e-04	
404	-2.450000e+00	-1.000000e-01	1.160126e-04	
405	-2.500000e+00	-1.000000e-01	1.189594e-04	
406	-2.550000e+00	-1.000000e-01	1.218560e-04	
407	-2.600000e+00	-1.000000e-01	1.247036e-04	
408	-2.650000e+00	-1.000000e-01	1.275032e-04	
409	-2.700000e+00	-1.000000e-01	1.302560e-04	
410	-2.750000e+00	-1.000000e-01	1.329630e-04	
411	-2.800000e+00	-1.000000e-01	1.356253e-04	
412	-2.850000e+00	-1.000000e-01	1.382439e-04	
413	-2.900000e+00	-1.000000e-01	1.408197e-04	
414	-2.950000e+00	-1.000000e-01	1.433538e-04	
415	-3.000000e+00	-1.000000e-01	1.458470e-04	
416	-3.050000e+00	-1.000000e-01	1.483002e-04	
417	-3.100000e+00	-1.000000e-01	1.507143e-04	
418	-3.150000e+00	-1.000000e-01	1.530902e-04	
419	-3.200000e+00	-1.000000e-01	1.554287e-04	
420	-3.250000e+00	-1.000000e-01	1.577306e-04	
421	-3.300000e+00	-1.000000e-01	1.599966e-04	
422	-3.350000e+00	-1.000000e-01	1.622276e-04	
423	-3.400000e+00	-1.000000e-01	1.644242e-04	
424	-3.450000e+00	-1.000000e-01	1.665872e-04	
425	-3.500000e+00	-1.000000e-01	1.687173e-04	
426	0.000000e+00	-1.000000e-01	6.210045e-12	
427	-5.000000e-02	-1.000000e-01	6.210104e-12	
428	-1.000000e-01	-1.000000e-01	6.210594e-12	
429	-1.500000e-01	-1.000000e-01	6.212147e-12	
430	-2.000000e-01	-1.000000e-01	6.217762e-12	
431	-2.500000e-01	-1.000000e-01	6.238061e-12	
432	-3.000000e-01	-1.000000e-01	6.311443e-12	
433	-3.500000e-01	-1.000000e-01	6.576674e-12	
434	-4.000000e-01	-1.000000e-01	7.535033e-12	
435	-4.500000e-01	-1.000000e-01	1.099585e-11	
436	-5.000000e-01	-1.000000e-01	2.347971e-11	
437	-5.500000e-01	-1.000000e-01	6.841771e-11	
438	-6.000000e-01	-1.000000e-01	2.295486e-10	
439	-6.500000e-01	-1.000000e-01	8.031239e-10	
440	-7.000000e-01	-1.000000e-01	2.818153e-09	
441	-7.500000e-01	-1.000000e-01	9.736687e-09	
442	-8.000000e-01	-1.000000e-01	3.262813e-08	
443	-8.500000e-01	-1.000000e-01	1.044875e-07	
444	-9.000000e-01	-1.000000e-01	3.160884e-07	
445	-9.500000e-01	-1.000000e-01	8.914396e-07	
446	-1.000000e+00	-1.000000e-01	2.254984e-06	
447	-1.050000e+00	-1.000000e-01	4.812625e-06	
448	-1.100000e+00	-1.000000e-01	8.487220e-06	
449	-1.150000e+00	-1.000000e-01	1.283383e-05	
450	-1.200000e+00	-1.000000e-01	1.745611e-05	
451	-1.250000e+00	-1.000000e-01	2.212904e-05	
452	-1.300000e+00	-1.000000e-01	2.675272e-05	
453	-1.350000e+00	-1.000000e-01	3.129176e-05	
454	-1.400000e+00	-1.000000e-01	3.573816e-05	
455	-1.450000e+00	-1.000000e-01	4.009356e-05	
456	-1.500000e+00	-1.000000e-01	4.436145e-05	
457	-1.550000e+00	-1.000000e-01	4.854586e-05	
458	-1.600000e+00	-1.000000e-01	5.265050e-05	
459	-1.650000e+00	-1.000000e-01	5.667809e-05	
460	-1.700000e+00	-1.000000e-01	6.063087e-05	

Index   sweep           v(2)            vds#branch      
--------------------------------------------------------------------------------
461	-1.750000e+00	-1.000000e-01	6.451078e-05	
462	-1.800000e+00	-1.000000e-01	6.831959e-05	
463	-1.850000e+00	-1.000000e-01	7.205893e-05	
464	-1.900000e+00	-1.000000e-01	7.573041e-05	
465	-1.950000e+00	-1.000000e-01	7.933557e-05	
466	-2.000000e+00	-1.000000e-01	8.287593e-05	
467	-2.050000e+00	-1.000000e-01	8.635297e-05	
468	-2.100000e+00	-1.000000e-01	8.976816e-05	
469	-2.150000e+00	-1.000000e-01	9.312294e-05	
470	-2.200000e+00	-1.000000e-01	9.641870e-05	
471	-2.250000e+00	-1.000000e-01	9.965682e-05	
472	-2.300000e+00	-1.000000e-01	1.028386e-04	
473	-2.350000e+00	-1.000000e-01	1.059655e-04	
474	-2.400000e+00	-1.000000e-01	1.090386e-04	
475	-2.450000e+00	-1.000000e-01	1.120593e-04	
476	-2.500000e+00	-1.000000e-01	1.150287e-04	
477	-2.550000e+00	-1.000000e-01	1.179480e-04	
478	-2.600000e+00	-1.000000e-01	1.208184e-04	
479	-2.650000e+00	-1.000000e-01	1.236410e-04	
480	-2.700000e+00	-1.000000e-01	1.264169e-04	
481	-2.750000e+00	-1.000000e-01	1.291471e-04	
482	-2.800000e+00	-1.000000e-01	1.318326e-04	
483	-2.850000e+00	-1.000000e-01	1.344744e-04	
484	-2.900000e+00	-1.000000e-01	1.370736e-04	
485	-2.950000e+00	-1.000000e-01	1.396310e-04	
486	-3.000000e+00	-1.000000e-01	1.421476e-04	
487	-3.050000e+00	-1.000000e-01	1.446243e-04	
488	-3.100000e+00	-1.000000e-01	1.470618e-04	
489	-3.150000e+00	-1.000000e-01	1.494611e-04	
490	-3.200000e+00	-1.000000e-01	1.518230e-04	
491	-3.250000e+00	-1.000000e-01	1.541483e-04	
492	-3.300000e+00	-1.000000e-01	1.564377e-04	
493	-3.350000e+00	-1.000000e-01	1.586920e-04	
494	-3.400000e+00	-1.000000e-01	1.609119e-04	
495	-3.450000e+00	-1.000000e-01	1.630981e-04	
496	-3.500000e+00	-1.000000e-01	1.652514e-04	




