
Circuit: ***  For BSIM3V3 general purpose check (Id-Vd) for Pmosfet ***

Circuit: ***  For BSIM3V3 general purpose check (Id-Vd) for Pmosfet ***


         ***  For BSIM3V3 general purpose check (Id-Vd) for Pmosfet ***
--------------------------------------------------------------------------------
Index   sweep           v(1)            vds#branch      
--------------------------------------------------------------------------------
0	0.000000e+00	0.000000e+00	0.000000e+00	
1	-5.000000e-02	0.000000e+00	7.039286e-14	
2	-1.000000e-01	0.000000e+00	2.103764e-13	
3	-1.500000e-01	0.000000e+00	3.106478e-13	
4	-2.000000e-01	0.000000e+00	4.107739e-13	
5	-2.500000e-01	0.000000e+00	5.108899e-13	
6	-3.000000e-01	0.000000e+00	6.110172e-13	
7	-3.500000e-01	0.000000e+00	7.111609e-13	
8	-4.000000e-01	0.000000e+00	8.113236e-13	
9	-4.500000e-01	0.000000e+00	9.115082e-13	
10	-5.000000e-01	0.000000e+00	1.011718e-12	
11	-5.500000e-01	0.000000e+00	1.111955e-12	
12	-6.000000e-01	0.000000e+00	1.212224e-12	
13	-6.500000e-01	0.000000e+00	1.312530e-12	
14	-7.000000e-01	0.000000e+00	1.412876e-12	
15	-7.500000e-01	0.000000e+00	1.513269e-12	
16	-8.000000e-01	0.000000e+00	1.613714e-12	
17	-8.500000e-01	0.000000e+00	1.714218e-12	
18	-9.000000e-01	0.000000e+00	1.814790e-12	
19	-9.500000e-01	0.000000e+00	1.915437e-12	
20	-1.000000e+00	0.000000e+00	2.016170e-12	
21	-1.050000e+00	0.000000e+00	2.117000e-12	
22	-1.100000e+00	0.000000e+00	2.217940e-12	
23	-1.150000e+00	0.000000e+00	2.319003e-12	
24	-1.200000e+00	0.000000e+00	2.420207e-12	
25	-1.250000e+00	0.000000e+00	2.521569e-12	
26	-1.300000e+00	0.000000e+00	2.623109e-12	
27	-1.350000e+00	0.000000e+00	2.724851e-12	
28	-1.400000e+00	0.000000e+00	2.826821e-12	
29	-1.450000e+00	0.000000e+00	2.929048e-12	
30	-1.500000e+00	0.000000e+00	3.031565e-12	
31	-1.550000e+00	0.000000e+00	3.134410e-12	
32	-1.600000e+00	0.000000e+00	3.237625e-12	
33	-1.650000e+00	0.000000e+00	3.341257e-12	
34	-1.700000e+00	0.000000e+00	3.445359e-12	
35	-1.750000e+00	0.000000e+00	3.549992e-12	
36	-1.800000e+00	0.000000e+00	3.655223e-12	
37	-1.850000e+00	0.000000e+00	3.761130e-12	
38	-1.900000e+00	0.000000e+00	3.867796e-12	
39	-1.950000e+00	0.000000e+00	3.975321e-12	
40	-2.000000e+00	0.000000e+00	4.083812e-12	
41	-2.050000e+00	0.000000e+00	4.193392e-12	
42	-2.100000e+00	0.000000e+00	4.304200e-12	
43	-2.150000e+00	0.000000e+00	4.416390e-12	
44	-2.200000e+00	0.000000e+00	4.530137e-12	
45	-2.250000e+00	0.000000e+00	4.645638e-12	
46	-2.300000e+00	0.000000e+00	4.763115e-12	
47	-2.350000e+00	0.000000e+00	4.882815e-12	
48	-2.400000e+00	0.000000e+00	5.005019e-12	
49	-2.450000e+00	0.000000e+00	5.130042e-12	
50	-2.500000e+00	0.000000e+00	5.258237e-12	
51	-2.550000e+00	0.000000e+00	5.390003e-12	
52	-2.600000e+00	0.000000e+00	5.525785e-12	
53	-2.650000e+00	0.000000e+00	5.666086e-12	
54	-2.700000e+00	0.000000e+00	5.811472e-12	

Index   sweep           v(1)            vds#branch      
--------------------------------------------------------------------------------
55	-2.750000e+00	0.000000e+00	5.962577e-12	
56	-2.800000e+00	0.000000e+00	6.120114e-12	
57	-2.850000e+00	0.000000e+00	6.284883e-12	
58	-2.900000e+00	0.000000e+00	6.457784e-12	
59	-2.950000e+00	0.000000e+00	6.639828e-12	
60	-3.000000e+00	0.000000e+00	6.832149e-12	
61	-3.050000e+00	0.000000e+00	7.036022e-12	
62	-3.100000e+00	0.000000e+00	7.252877e-12	
63	-3.150000e+00	0.000000e+00	7.484320e-12	
64	-3.200000e+00	0.000000e+00	7.732153e-12	
65	-3.250000e+00	0.000000e+00	7.998401e-12	
66	-3.300000e+00	0.000000e+00	8.285333e-12	
67	-3.350000e+00	0.000000e+00	8.595498e-12	
68	-3.400000e+00	0.000000e+00	8.931754e-12	
69	-3.450000e+00	0.000000e+00	9.297308e-12	
70	-3.500000e+00	0.000000e+00	9.695759e-12	
71	0.000000e+00	-5.000000e-01	5.362651e-24	
72	-5.000000e-02	-5.000000e-01	1.327645e-08	
73	-1.000000e-01	-5.000000e-01	1.611470e-08	
74	-1.500000e-01	-5.000000e-01	1.846334e-08	
75	-2.000000e-01	-5.000000e-01	2.096737e-08	
76	-2.500000e-01	-5.000000e-01	2.373125e-08	
77	-3.000000e-01	-5.000000e-01	2.680781e-08	
78	-3.500000e-01	-5.000000e-01	3.024182e-08	
79	-4.000000e-01	-5.000000e-01	3.407832e-08	
80	-4.500000e-01	-5.000000e-01	3.836524e-08	
81	-5.000000e-01	-5.000000e-01	4.315462e-08	
82	-5.500000e-01	-5.000000e-01	4.850344e-08	
83	-6.000000e-01	-5.000000e-01	5.447424e-08	
84	-6.500000e-01	-5.000000e-01	6.113582e-08	
85	-7.000000e-01	-5.000000e-01	6.856383e-08	
86	-7.500000e-01	-5.000000e-01	7.684147e-08	
87	-8.000000e-01	-5.000000e-01	8.606022e-08	
88	-8.500000e-01	-5.000000e-01	9.632056e-08	
89	-9.000000e-01	-5.000000e-01	1.077329e-07	
90	-9.500000e-01	-5.000000e-01	1.204182e-07	
91	-1.000000e+00	-5.000000e-01	1.345093e-07	
92	-1.050000e+00	-5.000000e-01	1.501516e-07	
93	-1.100000e+00	-5.000000e-01	1.675044e-07	
94	-1.150000e+00	-5.000000e-01	1.867418e-07	
95	-1.200000e+00	-5.000000e-01	2.080543e-07	
96	-1.250000e+00	-5.000000e-01	2.316498e-07	
97	-1.300000e+00	-5.000000e-01	2.577551e-07	
98	-1.350000e+00	-5.000000e-01	2.866175e-07	
99	-1.400000e+00	-5.000000e-01	3.185064e-07	
100	-1.450000e+00	-5.000000e-01	3.537146e-07	
101	-1.500000e+00	-5.000000e-01	3.925606e-07	
102	-1.550000e+00	-5.000000e-01	4.353899e-07	
103	-1.600000e+00	-5.000000e-01	4.825770e-07	
104	-1.650000e+00	-5.000000e-01	5.345275e-07	
105	-1.700000e+00	-5.000000e-01	5.916796e-07	
106	-1.750000e+00	-5.000000e-01	6.545065e-07	
107	-1.800000e+00	-5.000000e-01	7.235180e-07	
108	-1.850000e+00	-5.000000e-01	7.992625e-07	
109	-1.900000e+00	-5.000000e-01	8.823286e-07	
110	-1.950000e+00	-5.000000e-01	9.733471e-07	
111	-2.000000e+00	-5.000000e-01	1.072992e-06	
112	-2.050000e+00	-5.000000e-01	1.181983e-06	

Index   sweep           v(1)            vds#branch      
--------------------------------------------------------------------------------
113	-2.100000e+00	-5.000000e-01	1.301086e-06	
114	-2.150000e+00	-5.000000e-01	1.431112e-06	
115	-2.200000e+00	-5.000000e-01	1.572921e-06	
116	-2.250000e+00	-5.000000e-01	1.727421e-06	
117	-2.300000e+00	-5.000000e-01	1.895568e-06	
118	-2.350000e+00	-5.000000e-01	2.078363e-06	
119	-2.400000e+00	-5.000000e-01	2.276854e-06	
120	-2.450000e+00	-5.000000e-01	2.492133e-06	
121	-2.500000e+00	-5.000000e-01	2.725337e-06	
122	-2.550000e+00	-5.000000e-01	2.977640e-06	
123	-2.600000e+00	-5.000000e-01	3.250254e-06	
124	-2.650000e+00	-5.000000e-01	3.544424e-06	
125	-2.700000e+00	-5.000000e-01	3.861427e-06	
126	-2.750000e+00	-5.000000e-01	4.202563e-06	
127	-2.800000e+00	-5.000000e-01	4.569153e-06	
128	-2.850000e+00	-5.000000e-01	4.962536e-06	
129	-2.900000e+00	-5.000000e-01	5.384058e-06	
130	-2.950000e+00	-5.000000e-01	5.835072e-06	
131	-3.000000e+00	-5.000000e-01	6.316931e-06	
132	-3.050000e+00	-5.000000e-01	6.830978e-06	
133	-3.100000e+00	-5.000000e-01	7.378547e-06	
134	-3.150000e+00	-5.000000e-01	7.960953e-06	
135	-3.200000e+00	-5.000000e-01	8.579485e-06	
136	-3.250000e+00	-5.000000e-01	9.235407e-06	
137	-3.300000e+00	-5.000000e-01	9.929945e-06	
138	-3.350000e+00	-5.000000e-01	1.066429e-05	
139	-3.400000e+00	-5.000000e-01	1.143958e-05	
140	-3.450000e+00	-5.000000e-01	1.225692e-05	
141	-3.500000e+00	-5.000000e-01	1.311735e-05	
142	0.000000e+00	-1.000000e+00	0.000000e+00	
143	-5.000000e-02	-1.000000e+00	4.814767e-05	
144	-1.000000e-01	-1.000000e+00	8.757850e-05	
145	-1.500000e-01	-1.000000e+00	1.187517e-04	
146	-2.000000e-01	-1.000000e+00	1.422127e-04	
147	-2.500000e-01	-1.000000e+00	1.588144e-04	
148	-3.000000e-01	-1.000000e+00	1.701249e-04	
149	-3.500000e-01	-1.000000e+00	1.782969e-04	
150	-4.000000e-01	-1.000000e+00	1.849736e-04	
151	-4.500000e-01	-1.000000e+00	1.909280e-04	
152	-5.000000e-01	-1.000000e+00	1.964784e-04	
153	-5.500000e-01	-1.000000e+00	2.017725e-04	
154	-6.000000e-01	-1.000000e+00	2.068915e-04	
155	-6.500000e-01	-1.000000e+00	2.118858e-04	
156	-7.000000e-01	-1.000000e+00	2.167895e-04	
157	-7.500000e-01	-1.000000e+00	2.216269e-04	
158	-8.000000e-01	-1.000000e+00	2.264159e-04	
159	-8.500000e-01	-1.000000e+00	2.311703e-04	
160	-9.000000e-01	-1.000000e+00	2.359009e-04	
161	-9.500000e-01	-1.000000e+00	2.406159e-04	
162	-1.000000e+00	-1.000000e+00	2.453222e-04	
163	-1.050000e+00	-1.000000e+00	2.500253e-04	
164	-1.100000e+00	-1.000000e+00	2.547298e-04	
165	-1.150000e+00	-1.000000e+00	2.594392e-04	
166	-1.200000e+00	-1.000000e+00	2.641569e-04	
167	-1.250000e+00	-1.000000e+00	2.688854e-04	
168	-1.300000e+00	-1.000000e+00	2.736269e-04	
169	-1.350000e+00	-1.000000e+00	2.783833e-04	
170	-1.400000e+00	-1.000000e+00	2.831563e-04	

Index   sweep           v(1)            vds#branch      
--------------------------------------------------------------------------------
171	-1.450000e+00	-1.000000e+00	2.879472e-04	
172	-1.500000e+00	-1.000000e+00	2.927573e-04	
173	-1.550000e+00	-1.000000e+00	2.975875e-04	
174	-1.600000e+00	-1.000000e+00	3.024388e-04	
175	-1.650000e+00	-1.000000e+00	3.073120e-04	
176	-1.700000e+00	-1.000000e+00	3.122077e-04	
177	-1.750000e+00	-1.000000e+00	3.171266e-04	
178	-1.800000e+00	-1.000000e+00	3.220691e-04	
179	-1.850000e+00	-1.000000e+00	3.270358e-04	
180	-1.900000e+00	-1.000000e+00	3.320270e-04	
181	-1.950000e+00	-1.000000e+00	3.370432e-04	
182	-2.000000e+00	-1.000000e+00	3.420845e-04	
183	-2.050000e+00	-1.000000e+00	3.471514e-04	
184	-2.100000e+00	-1.000000e+00	3.522440e-04	
185	-2.150000e+00	-1.000000e+00	3.573625e-04	
186	-2.200000e+00	-1.000000e+00	3.625072e-04	
187	-2.250000e+00	-1.000000e+00	3.676782e-04	
188	-2.300000e+00	-1.000000e+00	3.728757e-04	
189	-2.350000e+00	-1.000000e+00	3.780997e-04	
190	-2.400000e+00	-1.000000e+00	3.833504e-04	
191	-2.450000e+00	-1.000000e+00	3.886279e-04	
192	-2.500000e+00	-1.000000e+00	3.939323e-04	
193	-2.550000e+00	-1.000000e+00	3.992636e-04	
194	-2.600000e+00	-1.000000e+00	4.046219e-04	
195	-2.650000e+00	-1.000000e+00	4.100072e-04	
196	-2.700000e+00	-1.000000e+00	4.154196e-04	
197	-2.750000e+00	-1.000000e+00	4.208590e-04	
198	-2.800000e+00	-1.000000e+00	4.263257e-04	
199	-2.850000e+00	-1.000000e+00	4.318301e-04	
200	-2.900000e+00	-1.000000e+00	4.373718e-04	
201	-2.950000e+00	-1.000000e+00	4.429406e-04	
202	-3.000000e+00	-1.000000e+00	4.485365e-04	
203	-3.050000e+00	-1.000000e+00	4.541594e-04	
204	-3.100000e+00	-1.000000e+00	4.598095e-04	
205	-3.150000e+00	-1.000000e+00	4.654865e-04	
206	-3.200000e+00	-1.000000e+00	4.711906e-04	
207	-3.250000e+00	-1.000000e+00	4.769217e-04	
208	-3.300000e+00	-1.000000e+00	4.826796e-04	
209	-3.350000e+00	-1.000000e+00	4.884645e-04	
210	-3.400000e+00	-1.000000e+00	4.942762e-04	
211	-3.450000e+00	-1.000000e+00	5.001148e-04	
212	-3.500000e+00	-1.000000e+00	5.059801e-04	
213	0.000000e+00	-1.500000e+00	0.000000e+00	
214	-5.000000e-02	-1.500000e+00	1.209109e-04	
215	-1.000000e-01	-1.500000e+00	2.311202e-04	
216	-1.500000e-01	-1.500000e+00	3.310931e-04	
217	-2.000000e-01	-1.500000e+00	4.212701e-04	
218	-2.500000e-01	-1.500000e+00	5.020697e-04	
219	-3.000000e-01	-1.500000e+00	5.738923e-04	
220	-3.500000e-01	-1.500000e+00	6.371262e-04	
221	-4.000000e-01	-1.500000e+00	6.921582e-04	
222	-4.500000e-01	-1.500000e+00	7.393956e-04	
223	-5.000000e-01	-1.500000e+00	7.793125e-04	
224	-5.500000e-01	-1.500000e+00	8.125426e-04	
225	-6.000000e-01	-1.500000e+00	8.400025e-04	
226	-6.500000e-01	-1.500000e+00	8.629001e-04	
227	-7.000000e-01	-1.500000e+00	8.824748e-04	
228	-7.500000e-01	-1.500000e+00	8.997020e-04	

Index   sweep           v(1)            vds#branch      
--------------------------------------------------------------------------------
229	-8.000000e-01	-1.500000e+00	9.152395e-04	
230	-8.500000e-01	-1.500000e+00	9.295176e-04	
231	-9.000000e-01	-1.500000e+00	9.428273e-04	
232	-9.500000e-01	-1.500000e+00	9.553739e-04	
233	-1.000000e+00	-1.500000e+00	9.673076e-04	
234	-1.050000e+00	-1.500000e+00	9.787417e-04	
235	-1.100000e+00	-1.500000e+00	9.897635e-04	
236	-1.150000e+00	-1.500000e+00	1.000441e-03	
237	-1.200000e+00	-1.500000e+00	1.010830e-03	
238	-1.250000e+00	-1.500000e+00	1.020974e-03	
239	-1.300000e+00	-1.500000e+00	1.030909e-03	
240	-1.350000e+00	-1.500000e+00	1.040665e-03	
241	-1.400000e+00	-1.500000e+00	1.050266e-03	
242	-1.450000e+00	-1.500000e+00	1.059734e-03	
243	-1.500000e+00	-1.500000e+00	1.069086e-03	
244	-1.550000e+00	-1.500000e+00	1.078337e-03	
245	-1.600000e+00	-1.500000e+00	1.087500e-03	
246	-1.650000e+00	-1.500000e+00	1.096586e-03	
247	-1.700000e+00	-1.500000e+00	1.105604e-03	
248	-1.750000e+00	-1.500000e+00	1.114564e-03	
249	-1.800000e+00	-1.500000e+00	1.123471e-03	
250	-1.850000e+00	-1.500000e+00	1.132334e-03	
251	-1.900000e+00	-1.500000e+00	1.141156e-03	
252	-1.950000e+00	-1.500000e+00	1.149944e-03	
253	-2.000000e+00	-1.500000e+00	1.158702e-03	
254	-2.050000e+00	-1.500000e+00	1.167434e-03	
255	-2.100000e+00	-1.500000e+00	1.176143e-03	
256	-2.150000e+00	-1.500000e+00	1.184832e-03	
257	-2.200000e+00	-1.500000e+00	1.193505e-03	
258	-2.250000e+00	-1.500000e+00	1.202163e-03	
259	-2.300000e+00	-1.500000e+00	1.210810e-03	
260	-2.350000e+00	-1.500000e+00	1.219447e-03	
261	-2.400000e+00	-1.500000e+00	1.228077e-03	
262	-2.450000e+00	-1.500000e+00	1.236700e-03	
263	-2.500000e+00	-1.500000e+00	1.245319e-03	
264	-2.550000e+00	-1.500000e+00	1.253935e-03	
265	-2.600000e+00	-1.500000e+00	1.262549e-03	
266	-2.650000e+00	-1.500000e+00	1.271163e-03	
267	-2.700000e+00	-1.500000e+00	1.279778e-03	
268	-2.750000e+00	-1.500000e+00	1.288394e-03	
269	-2.800000e+00	-1.500000e+00	1.297012e-03	
270	-2.850000e+00	-1.500000e+00	1.305635e-03	
271	-2.900000e+00	-1.500000e+00	1.314261e-03	
272	-2.950000e+00	-1.500000e+00	1.322892e-03	
273	-3.000000e+00	-1.500000e+00	1.331529e-03	
274	-3.050000e+00	-1.500000e+00	1.340173e-03	
275	-3.100000e+00	-1.500000e+00	1.348823e-03	
276	-3.150000e+00	-1.500000e+00	1.357480e-03	
277	-3.200000e+00	-1.500000e+00	1.366146e-03	
278	-3.250000e+00	-1.500000e+00	1.374820e-03	
279	-3.300000e+00	-1.500000e+00	1.383502e-03	
280	-3.350000e+00	-1.500000e+00	1.392194e-03	
281	-3.400000e+00	-1.500000e+00	1.400896e-03	
282	-3.450000e+00	-1.500000e+00	1.409607e-03	
283	-3.500000e+00	-1.500000e+00	1.418329e-03	
284	0.000000e+00	-2.000000e+00	0.000000e+00	
285	-5.000000e-02	-2.000000e+00	1.834078e-04	
286	-1.000000e-01	-2.000000e+00	3.550707e-04	

Index   sweep           v(1)            vds#branch      
--------------------------------------------------------------------------------
287	-1.500000e-01	-2.000000e+00	5.154616e-04	
288	-2.000000e-01	-2.000000e+00	6.650288e-04	
289	-2.500000e-01	-2.000000e+00	8.041973e-04	
290	-3.000000e-01	-2.000000e+00	9.333706e-04	
291	-3.500000e-01	-2.000000e+00	1.052932e-03	
292	-4.000000e-01	-2.000000e+00	1.163248e-03	
293	-4.500000e-01	-2.000000e+00	1.264666e-03	
294	-5.000000e-01	-2.000000e+00	1.357519e-03	
295	-5.500000e-01	-2.000000e+00	1.442130e-03	
296	-6.000000e-01	-2.000000e+00	1.518810e-03	
297	-6.500000e-01	-2.000000e+00	1.587868e-03	
298	-7.000000e-01	-2.000000e+00	1.649621e-03	
299	-7.500000e-01	-2.000000e+00	1.704412e-03	
300	-8.000000e-01	-2.000000e+00	1.752647e-03	
301	-8.500000e-01	-2.000000e+00	1.794852e-03	
302	-9.000000e-01	-2.000000e+00	1.831714e-03	
303	-9.500000e-01	-2.000000e+00	1.864044e-03	
304	-1.000000e+00	-2.000000e+00	1.892671e-03	
305	-1.050000e+00	-2.000000e+00	1.918330e-03	
306	-1.100000e+00	-2.000000e+00	1.941620e-03	
307	-1.150000e+00	-2.000000e+00	1.963009e-03	
308	-1.200000e+00	-2.000000e+00	1.982859e-03	
309	-1.250000e+00	-2.000000e+00	2.001449e-03	
310	-1.300000e+00	-2.000000e+00	2.018998e-03	
311	-1.350000e+00	-2.000000e+00	2.035677e-03	
312	-1.400000e+00	-2.000000e+00	2.051625e-03	
313	-1.450000e+00	-2.000000e+00	2.066950e-03	
314	-1.500000e+00	-2.000000e+00	2.081744e-03	
315	-1.550000e+00	-2.000000e+00	2.096079e-03	
316	-1.600000e+00	-2.000000e+00	2.110017e-03	
317	-1.650000e+00	-2.000000e+00	2.123609e-03	
318	-1.700000e+00	-2.000000e+00	2.136898e-03	
319	-1.750000e+00	-2.000000e+00	2.149920e-03	
320	-1.800000e+00	-2.000000e+00	2.162706e-03	
321	-1.850000e+00	-2.000000e+00	2.175283e-03	
322	-1.900000e+00	-2.000000e+00	2.187674e-03	
323	-1.950000e+00	-2.000000e+00	2.199898e-03	
324	-2.000000e+00	-2.000000e+00	2.211974e-03	
325	-2.050000e+00	-2.000000e+00	2.223916e-03	
326	-2.100000e+00	-2.000000e+00	2.235737e-03	
327	-2.150000e+00	-2.000000e+00	2.247450e-03	
328	-2.200000e+00	-2.000000e+00	2.259064e-03	
329	-2.250000e+00	-2.000000e+00	2.270590e-03	
330	-2.300000e+00	-2.000000e+00	2.282035e-03	
331	-2.350000e+00	-2.000000e+00	2.293407e-03	
332	-2.400000e+00	-2.000000e+00	2.304713e-03	
333	-2.450000e+00	-2.000000e+00	2.315958e-03	
334	-2.500000e+00	-2.000000e+00	2.327148e-03	
335	-2.550000e+00	-2.000000e+00	2.338287e-03	
336	-2.600000e+00	-2.000000e+00	2.349381e-03	
337	-2.650000e+00	-2.000000e+00	2.360433e-03	
338	-2.700000e+00	-2.000000e+00	2.371447e-03	
339	-2.750000e+00	-2.000000e+00	2.382426e-03	
340	-2.800000e+00	-2.000000e+00	2.393373e-03	
341	-2.850000e+00	-2.000000e+00	2.404291e-03	
342	-2.900000e+00	-2.000000e+00	2.415183e-03	
343	-2.950000e+00	-2.000000e+00	2.426051e-03	
344	-3.000000e+00	-2.000000e+00	2.436897e-03	

Index   sweep           v(1)            vds#branch      
--------------------------------------------------------------------------------
345	-3.050000e+00	-2.000000e+00	2.447723e-03	
346	-3.100000e+00	-2.000000e+00	2.458531e-03	
347	-3.150000e+00	-2.000000e+00	2.469323e-03	
348	-3.200000e+00	-2.000000e+00	2.480100e-03	
349	-3.250000e+00	-2.000000e+00	2.490864e-03	
350	-3.300000e+00	-2.000000e+00	2.501617e-03	
351	-3.350000e+00	-2.000000e+00	2.512358e-03	
352	-3.400000e+00	-2.000000e+00	2.523091e-03	
353	-3.450000e+00	-2.000000e+00	2.533815e-03	
354	-3.500000e+00	-2.000000e+00	2.544531e-03	
355	0.000000e+00	-2.500000e+00	0.000000e+00	
356	-5.000000e-02	-2.500000e+00	2.376438e-04	
357	-1.000000e-01	-2.500000e+00	4.629058e-04	
358	-1.500000e-01	-2.500000e+00	6.762517e-04	
359	-2.000000e-01	-2.500000e+00	8.781241e-04	
360	-2.500000e-01	-2.500000e+00	1.068944e-03	
361	-3.000000e-01	-2.500000e+00	1.249113e-03	
362	-3.500000e-01	-2.500000e+00	1.419013e-03	
363	-4.000000e-01	-2.500000e+00	1.579006e-03	
364	-4.500000e-01	-2.500000e+00	1.729442e-03	
365	-5.000000e-01	-2.500000e+00	1.870649e-03	
366	-5.500000e-01	-2.500000e+00	2.002946e-03	
367	-6.000000e-01	-2.500000e+00	2.126634e-03	
368	-6.500000e-01	-2.500000e+00	2.242001e-03	
369	-7.000000e-01	-2.500000e+00	2.349323e-03	
370	-7.500000e-01	-2.500000e+00	2.448865e-03	
371	-8.000000e-01	-2.500000e+00	2.540876e-03	
372	-8.500000e-01	-2.500000e+00	2.625597e-03	
373	-9.000000e-01	-2.500000e+00	2.703250e-03	
374	-9.500000e-01	-2.500000e+00	2.774043e-03	
375	-1.000000e+00	-2.500000e+00	2.838174e-03	
376	-1.050000e+00	-2.500000e+00	2.895853e-03	
377	-1.100000e+00	-2.500000e+00	2.947367e-03	
378	-1.150000e+00	-2.500000e+00	2.993164e-03	
379	-1.200000e+00	-2.500000e+00	3.033876e-03	
380	-1.250000e+00	-2.500000e+00	3.070236e-03	
381	-1.300000e+00	-2.500000e+00	3.102969e-03	
382	-1.350000e+00	-2.500000e+00	3.132712e-03	
383	-1.400000e+00	-2.500000e+00	3.159997e-03	
384	-1.450000e+00	-2.500000e+00	3.185252e-03	
385	-1.500000e+00	-2.500000e+00	3.208822e-03	
386	-1.550000e+00	-2.500000e+00	3.230981e-03	
387	-1.600000e+00	-2.500000e+00	3.251949e-03	
388	-1.650000e+00	-2.500000e+00	3.271906e-03	
389	-1.700000e+00	-2.500000e+00	3.290998e-03	
390	-1.750000e+00	-2.500000e+00	3.309343e-03	
391	-1.800000e+00	-2.500000e+00	3.327040e-03	
392	-1.850000e+00	-2.500000e+00	3.344174e-03	
393	-1.900000e+00	-2.500000e+00	3.360813e-03	
394	-1.950000e+00	-2.500000e+00	3.377015e-03	
395	-2.000000e+00	-2.500000e+00	3.392832e-03	
396	-2.050000e+00	-2.500000e+00	3.408306e-03	
397	-2.100000e+00	-2.500000e+00	3.423474e-03	
398	-2.150000e+00	-2.500000e+00	3.438368e-03	
399	-2.200000e+00	-2.500000e+00	3.453016e-03	
400	-2.250000e+00	-2.500000e+00	3.467441e-03	
401	-2.300000e+00	-2.500000e+00	3.481667e-03	
402	-2.350000e+00	-2.500000e+00	3.495710e-03	

Index   sweep           v(1)            vds#branch      
--------------------------------------------------------------------------------
403	-2.400000e+00	-2.500000e+00	3.509589e-03	
404	-2.450000e+00	-2.500000e+00	3.523318e-03	
405	-2.500000e+00	-2.500000e+00	3.536909e-03	
406	-2.550000e+00	-2.500000e+00	3.550376e-03	
407	-2.600000e+00	-2.500000e+00	3.563727e-03	
408	-2.650000e+00	-2.500000e+00	3.576974e-03	
409	-2.700000e+00	-2.500000e+00	3.590123e-03	
410	-2.750000e+00	-2.500000e+00	3.603184e-03	
411	-2.800000e+00	-2.500000e+00	3.616163e-03	
412	-2.850000e+00	-2.500000e+00	3.629067e-03	
413	-2.900000e+00	-2.500000e+00	3.641900e-03	
414	-2.950000e+00	-2.500000e+00	3.654670e-03	
415	-3.000000e+00	-2.500000e+00	3.667379e-03	
416	-3.050000e+00	-2.500000e+00	3.680033e-03	
417	-3.100000e+00	-2.500000e+00	3.692637e-03	
418	-3.150000e+00	-2.500000e+00	3.705192e-03	
419	-3.200000e+00	-2.500000e+00	3.717704e-03	
420	-3.250000e+00	-2.500000e+00	3.730175e-03	
421	-3.300000e+00	-2.500000e+00	3.742608e-03	
422	-3.350000e+00	-2.500000e+00	3.755006e-03	
423	-3.400000e+00	-2.500000e+00	3.767371e-03	
424	-3.450000e+00	-2.500000e+00	3.779706e-03	
425	-3.500000e+00	-2.500000e+00	3.792012e-03	
426	0.000000e+00	-3.000000e+00	0.000000e+00	
427	-5.000000e-02	-3.000000e+00	2.852091e-04	
428	-1.000000e-01	-3.000000e+00	5.576523e-04	
429	-1.500000e-01	-3.000000e+00	8.177805e-04	
430	-2.000000e-01	-3.000000e+00	1.066023e-03	
431	-2.500000e-01	-3.000000e+00	1.302791e-03	
432	-3.000000e-01	-3.000000e+00	1.528476e-03	
433	-3.500000e-01	-3.000000e+00	1.743451e-03	
434	-4.000000e-01	-3.000000e+00	1.948074e-03	
435	-4.500000e-01	-3.000000e+00	2.142687e-03	
436	-5.000000e-01	-3.000000e+00	2.327616e-03	
437	-5.500000e-01	-3.000000e+00	2.503174e-03	
438	-6.000000e-01	-3.000000e+00	2.669659e-03	
439	-6.500000e-01	-3.000000e+00	2.827359e-03	
440	-7.000000e-01	-3.000000e+00	2.976547e-03	
441	-7.500000e-01	-3.000000e+00	3.117485e-03	
442	-8.000000e-01	-3.000000e+00	3.250424e-03	
443	-8.500000e-01	-3.000000e+00	3.375601e-03	
444	-9.000000e-01	-3.000000e+00	3.493242e-03	
445	-9.500000e-01	-3.000000e+00	3.603558e-03	
446	-1.000000e+00	-3.000000e+00	3.706743e-03	
447	-1.050000e+00	-3.000000e+00	3.802963e-03	
448	-1.100000e+00	-3.000000e+00	3.892352e-03	
449	-1.150000e+00	-3.000000e+00	3.974995e-03	
450	-1.200000e+00	-3.000000e+00	4.050917e-03	
451	-1.250000e+00	-3.000000e+00	4.120109e-03	
452	-1.300000e+00	-3.000000e+00	4.182614e-03	
453	-1.350000e+00	-3.000000e+00	4.238660e-03	
454	-1.400000e+00	-3.000000e+00	4.288738e-03	
455	-1.450000e+00	-3.000000e+00	4.333543e-03	
456	-1.500000e+00	-3.000000e+00	4.373838e-03	
457	-1.550000e+00	-3.000000e+00	4.410347e-03	
458	-1.600000e+00	-3.000000e+00	4.443701e-03	
459	-1.650000e+00	-3.000000e+00	4.474428e-03	
460	-1.700000e+00	-3.000000e+00	4.502958e-03	

Index   sweep           v(1)            vds#branch      
--------------------------------------------------------------------------------
461	-1.750000e+00	-3.000000e+00	4.529640e-03	
462	-1.800000e+00	-3.000000e+00	4.554759e-03	
463	-1.850000e+00	-3.000000e+00	4.578545e-03	
464	-1.900000e+00	-3.000000e+00	4.601188e-03	
465	-1.950000e+00	-3.000000e+00	4.622844e-03	
466	-2.000000e+00	-3.000000e+00	4.643644e-03	
467	-2.050000e+00	-3.000000e+00	4.663695e-03	
468	-2.100000e+00	-3.000000e+00	4.683089e-03	
469	-2.150000e+00	-3.000000e+00	4.701904e-03	
470	-2.200000e+00	-3.000000e+00	4.720204e-03	
471	-2.250000e+00	-3.000000e+00	4.738048e-03	
472	-2.300000e+00	-3.000000e+00	4.755483e-03	
473	-2.350000e+00	-3.000000e+00	4.772552e-03	
474	-2.400000e+00	-3.000000e+00	4.789292e-03	
475	-2.450000e+00	-3.000000e+00	4.805734e-03	
476	-2.500000e+00	-3.000000e+00	4.821907e-03	
477	-2.550000e+00	-3.000000e+00	4.837836e-03	
478	-2.600000e+00	-3.000000e+00	4.853542e-03	
479	-2.650000e+00	-3.000000e+00	4.869045e-03	
480	-2.700000e+00	-3.000000e+00	4.884363e-03	
481	-2.750000e+00	-3.000000e+00	4.899510e-03	
482	-2.800000e+00	-3.000000e+00	4.914502e-03	
483	-2.850000e+00	-3.000000e+00	4.929350e-03	
484	-2.900000e+00	-3.000000e+00	4.944066e-03	
485	-2.950000e+00	-3.000000e+00	4.958660e-03	
486	-3.000000e+00	-3.000000e+00	4.973141e-03	
487	-3.050000e+00	-3.000000e+00	4.987518e-03	
488	-3.100000e+00	-3.000000e+00	5.001798e-03	
489	-3.150000e+00	-3.000000e+00	5.015988e-03	
490	-3.200000e+00	-3.000000e+00	5.030095e-03	
491	-3.250000e+00	-3.000000e+00	5.044124e-03	
492	-3.300000e+00	-3.000000e+00	5.058081e-03	
493	-3.350000e+00	-3.000000e+00	5.071971e-03	
494	-3.400000e+00	-3.000000e+00	5.085798e-03	
495	-3.450000e+00	-3.000000e+00	5.099566e-03	
496	-3.500000e+00	-3.000000e+00	5.113280e-03	
497	0.000000e+00	-3.500000e+00	0.000000e+00	
498	-5.000000e-02	-3.500000e+00	3.273234e-04	
499	-1.000000e-01	-3.500000e+00	6.416669e-04	
500	-1.500000e-01	-3.500000e+00	9.434628e-04	
501	-2.000000e-01	-3.500000e+00	1.233124e-03	
502	-2.500000e-01	-3.500000e+00	1.511047e-03	
503	-3.000000e-01	-3.500000e+00	1.777610e-03	
504	-3.500000e-01	-3.500000e+00	2.033175e-03	
505	-4.000000e-01	-3.500000e+00	2.278089e-03	
506	-4.500000e-01	-3.500000e+00	2.512685e-03	
507	-5.000000e-01	-3.500000e+00	2.737282e-03	
508	-5.500000e-01	-3.500000e+00	2.952186e-03	
509	-6.000000e-01	-3.500000e+00	3.157690e-03	
510	-6.500000e-01	-3.500000e+00	3.354076e-03	
511	-7.000000e-01	-3.500000e+00	3.541613e-03	
512	-7.500000e-01	-3.500000e+00	3.720561e-03	
513	-8.000000e-01	-3.500000e+00	3.891168e-03	
514	-8.500000e-01	-3.500000e+00	4.053673e-03	
515	-9.000000e-01	-3.500000e+00	4.208303e-03	
516	-9.500000e-01	-3.500000e+00	4.355276e-03	
517	-1.000000e+00	-3.500000e+00	4.494796e-03	
518	-1.050000e+00	-3.500000e+00	4.627058e-03	

Index   sweep           v(1)            vds#branch      
--------------------------------------------------------------------------------
519	-1.100000e+00	-3.500000e+00	4.752239e-03	
520	-1.150000e+00	-3.500000e+00	4.870495e-03	
521	-1.200000e+00	-3.500000e+00	4.981954e-03	
522	-1.250000e+00	-3.500000e+00	5.086701e-03	
523	-1.300000e+00	-3.500000e+00	5.184757e-03	
524	-1.350000e+00	-3.500000e+00	5.276058e-03	
525	-1.400000e+00	-3.500000e+00	5.360449e-03	
526	-1.450000e+00	-3.500000e+00	5.437737e-03	
527	-1.500000e+00	-3.500000e+00	5.507827e-03	
528	-1.550000e+00	-3.500000e+00	5.570883e-03	
529	-1.600000e+00	-3.500000e+00	5.627386e-03	
530	-1.650000e+00	-3.500000e+00	5.678053e-03	
531	-1.700000e+00	-3.500000e+00	5.723685e-03	
532	-1.750000e+00	-3.500000e+00	5.765054e-03	
533	-1.800000e+00	-3.500000e+00	5.802842e-03	
534	-1.850000e+00	-3.500000e+00	5.837624e-03	
535	-1.900000e+00	-3.500000e+00	5.869879e-03	
536	-1.950000e+00	-3.500000e+00	5.899997e-03	
537	-2.000000e+00	-3.500000e+00	5.928299e-03	
538	-2.050000e+00	-3.500000e+00	5.955047e-03	
539	-2.100000e+00	-3.500000e+00	5.980457e-03	
540	-2.150000e+00	-3.500000e+00	6.004710e-03	
541	-2.200000e+00	-3.500000e+00	6.027955e-03	
542	-2.250000e+00	-3.500000e+00	6.050317e-03	
543	-2.300000e+00	-3.500000e+00	6.071903e-03	
544	-2.350000e+00	-3.500000e+00	6.092802e-03	
545	-2.400000e+00	-3.500000e+00	6.113092e-03	
546	-2.450000e+00	-3.500000e+00	6.132839e-03	
547	-2.500000e+00	-3.500000e+00	6.152099e-03	
548	-2.550000e+00	-3.500000e+00	6.170923e-03	
549	-2.600000e+00	-3.500000e+00	6.189353e-03	
550	-2.650000e+00	-3.500000e+00	6.207428e-03	
551	-2.700000e+00	-3.500000e+00	6.225180e-03	
552	-2.750000e+00	-3.500000e+00	6.242638e-03	
553	-2.800000e+00	-3.500000e+00	6.259830e-03	
554	-2.850000e+00	-3.500000e+00	6.276777e-03	
555	-2.900000e+00	-3.500000e+00	6.293500e-03	
556	-2.950000e+00	-3.500000e+00	6.310018e-03	
557	-3.000000e+00	-3.500000e+00	6.326347e-03	
558	-3.050000e+00	-3.500000e+00	6.342502e-03	
559	-3.100000e+00	-3.500000e+00	6.358497e-03	
560	-3.150000e+00	-3.500000e+00	6.374343e-03	
561	-3.200000e+00	-3.500000e+00	6.390052e-03	
562	-3.250000e+00	-3.500000e+00	6.405633e-03	
563	-3.300000e+00	-3.500000e+00	6.421096e-03	
564	-3.350000e+00	-3.500000e+00	6.436448e-03	
565	-3.400000e+00	-3.500000e+00	6.451698e-03	
566	-3.450000e+00	-3.500000e+00	6.466853e-03	
567	-3.500000e+00	-3.500000e+00	6.481919e-03	




