
Circuit: ** Operational Amplifier (AC): Benchmarking Implementation of BSIM4.1.0 by Weidong Liu 10/11/2000.

Circuit: ** Operational Amplifier (AC): Benchmarking Implementation of BSIM4.1.0 by Weidong Liu 10/11/2000.
Date: Wed Oct 11 05:37:59  2000


** Operational Amplifier (AC): Benchmarking Implementation of BSIM4.1.0 by Weidong Liu 10/11/2000.
AC Analysis  Wed Oct 11 05:37:59  2000
--------------------------------------------------------------------------------
Index   frequency                       db(v(8))        
--------------------------------------------------------------------------------
0	1.000000e+02,	0.000000e+00	3.083139e+01	
1	1.258925e+02,	0.000000e+00	3.083126e+01	
2	1.584893e+02,	0.000000e+00	3.083105e+01	
3	1.995262e+02,	0.000000e+00	3.083072e+01	
4	2.511886e+02,	0.000000e+00	3.083021e+01	
5	3.162278e+02,	0.000000e+00	3.082944e+01	
6	3.981072e+02,	0.000000e+00	3.082830e+01	
7	5.011872e+02,	0.000000e+00	3.082666e+01	
8	6.309573e+02,	0.000000e+00	3.082442e+01	
9	7.943282e+02,	0.000000e+00	3.082155e+01	
10	1.000000e+03,	0.000000e+00	3.081816e+01	
11	1.258925e+03,	0.000000e+00	3.081452e+01	
12	1.584893e+03,	0.000000e+00	3.081099e+01	
13	1.995262e+03,	0.000000e+00	3.080786e+01	
14	2.511886e+03,	0.000000e+00	3.080528e+01	
15	3.162278e+03,	0.000000e+00	3.080321e+01	
16	3.981072e+03,	0.000000e+00	3.080150e+01	
17	5.011872e+03,	0.000000e+00	3.079995e+01	
18	6.309573e+03,	0.000000e+00	3.079828e+01	
19	7.943282e+03,	0.000000e+00	3.079617e+01	
20	1.000000e+04,	0.000000e+00	3.079318e+01	
21	1.258925e+04,	0.000000e+00	3.078866e+01	
22	1.584893e+04,	0.000000e+00	3.078165e+01	
23	1.995262e+04,	0.000000e+00	3.077066e+01	
24	2.511886e+04,	0.000000e+00	3.075336e+01	
25	3.162278e+04,	0.000000e+00	3.072612e+01	
26	3.981072e+04,	0.000000e+00	3.068330e+01	
27	5.011872e+04,	0.000000e+00	3.061632e+01	
28	6.309573e+04,	0.000000e+00	3.051225e+01	
29	7.943282e+04,	0.000000e+00	3.035225e+01	
30	1.000000e+05,	0.000000e+00	3.011019e+01	
31	1.258925e+05,	0.000000e+00	2.975226e+01	
32	1.584893e+05,	0.000000e+00	2.923935e+01	
33	1.995262e+05,	0.000000e+00	2.853346e+01	
34	2.511886e+05,	0.000000e+00	2.760751e+01	
35	3.162278e+05,	0.000000e+00	2.645449e+01	
36	3.981072e+05,	0.000000e+00	2.509018e+01	
37	5.011872e+05,	0.000000e+00	2.354772e+01	
38	6.309573e+05,	0.000000e+00	2.186778e+01	
39	7.943282e+05,	0.000000e+00	2.008986e+01	
40	1.000000e+06,	0.000000e+00	1.824794e+01	
41	1.258925e+06,	0.000000e+00	1.636974e+01	
42	1.584893e+06,	0.000000e+00	1.447847e+01	
43	1.995262e+06,	0.000000e+00	1.259548e+01	
44	2.511886e+06,	0.000000e+00	1.074316e+01	
45	3.162278e+06,	0.000000e+00	8.947522e+00	
46	3.981072e+06,	0.000000e+00	7.239884e+00	
47	5.011872e+06,	0.000000e+00	5.656142e+00	
48	6.309573e+06,	0.000000e+00	4.232195e+00	
49	7.943282e+06,	0.000000e+00	2.994809e+00	
50	1.000000e+07,	0.000000e+00	1.950419e+00	
51	1.258925e+07,	0.000000e+00	1.077384e+00	
52	1.584893e+07,	0.000000e+00	3.263470e-01	
53	1.995262e+07,	0.000000e+00	-3.717669e-01	
54	2.511886e+07,	0.000000e+00	-1.094144e+00	

Index   frequency                       db(v(8))        
--------------------------------------------------------------------------------
55	3.162278e+07,	0.000000e+00	-1.913889e+00	
56	3.981072e+07,	0.000000e+00	-2.888451e+00	
57	5.011872e+07,	0.000000e+00	-4.051242e+00	
58	6.309573e+07,	0.000000e+00	-5.411505e+00	
59	7.943282e+07,	0.000000e+00	-6.965808e+00	
60	1.000000e+08,	0.000000e+00	-8.717440e+00	

CPU time since last call: 0.420 seconds.

Total CPU time: 0.420 seconds.

Current dynamic memory usage = 245760,
Dynamic memory limit = -18074808.

