
Circuit: ** Operational Amplifier (AC): Benchmarking Implementation of BSIM4.6.0 by Mohan V. Dunga 12/13/2006.

Circuit: ** Operational Amplifier (AC): Benchmarking Implementation of BSIM4.6.0 by Mohan V. Dunga 12/13/2006.
Date: Fri Apr  8 01:35:54  2011


** Operational Amplifier (AC): Benchmarking Implementation of BSIM4.6.0 by Mohan V. Dunga 12/13/2006.
AC Analysis  Fri Apr  8 01:35:54  2011
--------------------------------------------------------------------------------
Index   frequency                       db(v(8))        
--------------------------------------------------------------------------------
0	1.000000e+02,	0.000000e+00	4.959602e-02	
1	1.258925e+02,	0.000000e+00	4.365832e-02	
2	1.584893e+02,	0.000000e+00	3.589319e-02	
3	1.995262e+02,	0.000000e+00	2.650152e-02	
4	2.511886e+02,	0.000000e+00	1.615919e-02	
5	3.162278e+02,	0.000000e+00	5.882384e-03	
6	3.981072e+02,	0.000000e+00	-3.337633e-03	
7	5.011872e+02,	0.000000e+00	-1.088158e-02	
8	6.309573e+02,	0.000000e+00	-1.660248e-02	
9	7.943282e+02,	0.000000e+00	-2.069586e-02	
10	1.000000e+03,	0.000000e+00	-2.350454e-02	
11	1.258925e+03,	0.000000e+00	-2.537690e-02	
12	1.584893e+03,	0.000000e+00	-2.660141e-02	
13	1.995262e+03,	0.000000e+00	-2.739263e-02	
14	2.511886e+03,	0.000000e+00	-2.790054e-02	
15	3.162278e+03,	0.000000e+00	-2.822620e-02	
16	3.981072e+03,	0.000000e+00	-2.843643e-02	
17	5.011872e+03,	0.000000e+00	-2.857522e-02	
18	6.309573e+03,	0.000000e+00	-2.867194e-02	
19	7.943282e+03,	0.000000e+00	-2.874727e-02	
20	1.000000e+04,	0.000000e+00	-2.881736e-02	
21	1.258925e+04,	0.000000e+00	-2.889731e-02	
22	1.584893e+04,	0.000000e+00	-2.900436e-02	
23	1.995262e+04,	0.000000e+00	-2.916162e-02	
24	2.511886e+04,	0.000000e+00	-2.940300e-02	
25	3.162278e+04,	0.000000e+00	-2.978060e-02	
26	3.981072e+04,	0.000000e+00	-3.037587e-02	
27	5.011872e+04,	0.000000e+00	-3.131717e-02	
28	6.309573e+04,	0.000000e+00	-3.280738e-02	
29	7.943282e+04,	0.000000e+00	-3.516737e-02	
30	1.000000e+05,	0.000000e+00	-3.890459e-02	
31	1.258925e+05,	0.000000e+00	-4.482078e-02	
32	1.584893e+05,	0.000000e+00	-5.418063e-02	
33	1.995262e+05,	0.000000e+00	-6.897366e-02	
34	2.511886e+05,	0.000000e+00	-9.231619e-02	
35	3.162278e+05,	0.000000e+00	-1.290563e-01	
36	3.981072e+05,	0.000000e+00	-1.866560e-01	
37	5.011872e+05,	0.000000e+00	-2.764081e-01	
38	6.309573e+05,	0.000000e+00	-4.149603e-01	
39	7.943282e+05,	0.000000e+00	-6.258753e-01	
40	1.000000e+06,	0.000000e+00	-9.404810e-01	
41	1.258925e+06,	0.000000e+00	-1.396627e+00	
42	1.584893e+06,	0.000000e+00	-2.033743e+00	
43	1.995262e+06,	0.000000e+00	-2.883902e+00	
44	2.511886e+06,	0.000000e+00	-3.961838e+00	
45	3.162278e+06,	0.000000e+00	-5.259559e+00	
46	3.981072e+06,	0.000000e+00	-6.749246e+00	
47	5.011872e+06,	0.000000e+00	-8.392374e+00	
48	6.309573e+06,	0.000000e+00	-1.014941e+01	
49	7.943282e+06,	0.000000e+00	-1.198602e+01	
50	1.000000e+07,	0.000000e+00	-1.387515e+01	
51	1.258925e+07,	0.000000e+00	-1.579646e+01	
52	1.584893e+07,	0.000000e+00	-1.773451e+01	
53	1.995262e+07,	0.000000e+00	-1.967670e+01	
54	2.511886e+07,	0.000000e+00	-2.161114e+01	

Index   frequency                       db(v(8))        
--------------------------------------------------------------------------------
55	3.162278e+07,	0.000000e+00	-2.352459e+01	
56	3.981072e+07,	0.000000e+00	-2.540039e+01	
57	5.011872e+07,	0.000000e+00	-2.721641e+01	
58	6.309573e+07,	0.000000e+00	-2.894354e+01	
59	7.943282e+07,	0.000000e+00	-3.054580e+01	
60	1.000000e+08,	0.000000e+00	-3.198377e+01	

CPU time since last call: 0.000 seconds.

Total CPU time: 0.000 seconds.

Current dynamic memory usage = 397312,
Dynamic memory limit = -385613825.

