
Circuit: ** Operational Amplifier (AC): Benchmarking Implementation of BSIM4 by Jane Xi 05/09/2003.

Doing analysis at TEMP = 300.150000 and TNOM = 300.150000
Warning: toxe, toxp and dtox all given and toxe != toxp + dtox; dtox ignored.
Warning: toxe, toxp and dtox all given and toxe != toxp + dtox; dtox ignored.
** Operational Amplifier (AC): Benchmarking Implementation of BSIM4 by Jane Xi 05/09/2003.
AC Analysis  Sat Aug 27 16:01:17  2005
--------------------------------------------------------------------------------
Index   frequency                       vdb(8)          
--------------------------------------------------------------------------------
0	1.000000e+02,	0.000000e+00	5.336336e+00	
1	1.258925e+02,	0.000000e+00	5.336336e+00	
2	1.584893e+02,	0.000000e+00	5.336335e+00	
3	1.995262e+02,	0.000000e+00	5.336335e+00	
4	2.511886e+02,	0.000000e+00	5.336334e+00	
5	3.162278e+02,	0.000000e+00	5.336333e+00	
6	3.981072e+02,	0.000000e+00	5.336332e+00	
7	5.011872e+02,	0.000000e+00	5.336329e+00	
8	6.309573e+02,	0.000000e+00	5.336325e+00	
9	7.943282e+02,	0.000000e+00	5.336319e+00	
10	1.000000e+03,	0.000000e+00	5.336309e+00	
11	1.258925e+03,	0.000000e+00	5.336293e+00	
12	1.584893e+03,	0.000000e+00	5.336267e+00	
13	1.995262e+03,	0.000000e+00	5.336227e+00	
14	2.511886e+03,	0.000000e+00	5.336164e+00	
15	3.162278e+03,	0.000000e+00	5.336064e+00	
16	3.981072e+03,	0.000000e+00	5.335906e+00	
17	5.011872e+03,	0.000000e+00	5.335658e+00	
18	6.309573e+03,	0.000000e+00	5.335268e+00	
19	7.943282e+03,	0.000000e+00	5.334660e+00	
20	1.000000e+04,	0.000000e+00	5.333721e+00	
21	1.258925e+04,	0.000000e+00	5.332291e+00	
22	1.584893e+04,	0.000000e+00	5.330157e+00	
23	1.995262e+04,	0.000000e+00	5.327068e+00	
24	2.511886e+04,	0.000000e+00	5.322774e+00	
25	3.162278e+04,	0.000000e+00	5.317094e+00	
26	3.981072e+04,	0.000000e+00	5.309976e+00	
27	5.011872e+04,	0.000000e+00	5.301438e+00	
28	6.309573e+04,	0.000000e+00	5.291340e+00	
29	7.943282e+04,	0.000000e+00	5.279041e+00	
30	1.000000e+05,	0.000000e+00	5.263046e+00	
31	1.258925e+05,	0.000000e+00	5.240677e+00	
32	1.584893e+05,	0.000000e+00	5.207639e+00	
33	1.995262e+05,	0.000000e+00	5.157338e+00	
34	2.511886e+05,	0.000000e+00	5.079839e+00	
35	3.162278e+05,	0.000000e+00	4.960456e+00	
36	3.981072e+05,	0.000000e+00	4.778151e+00	
37	5.011872e+05,	0.000000e+00	4.504293e+00	
38	6.309573e+05,	0.000000e+00	4.102958e+00	
39	7.943282e+05,	0.000000e+00	3.534393e+00	
40	1.000000e+06,	0.000000e+00	2.762665e+00	
41	1.258925e+06,	0.000000e+00	1.765828e+00	
42	1.584893e+06,	0.000000e+00	5.435890e-01	
43	1.995262e+06,	0.000000e+00	-8.825721e-01	
44	2.511886e+06,	0.000000e+00	-2.476908e+00	
45	3.162278e+06,	0.000000e+00	-4.199572e+00	
46	3.981072e+06,	0.000000e+00	-6.014352e+00	
47	5.011872e+06,	0.000000e+00	-7.892213e+00	
48	6.309573e+06,	0.000000e+00	-9.811615e+00	
49	7.943282e+06,	0.000000e+00	-1.175721e+01	
50	1.000000e+07,	0.000000e+00	-1.371812e+01	
51	1.258925e+07,	0.000000e+00	-1.568628e+01	
52	1.584893e+07,	0.000000e+00	-1.765500e+01	
53	1.995262e+07,	0.000000e+00	-1.961772e+01	
54	2.511886e+07,	0.000000e+00	-2.156671e+01	

Index   frequency                       vdb(8)          
--------------------------------------------------------------------------------
55	3.162278e+07,	0.000000e+00	-2.349175e+01	
56	3.981072e+07,	0.000000e+00	-2.537849e+01	
57	5.011872e+07,	0.000000e+00	-2.720681e+01	
58	6.309573e+07,	0.000000e+00	-2.894955e+01	
59	7.943282e+07,	0.000000e+00	-3.057268e+01	
60	1.000000e+08,	0.000000e+00	-3.203866e+01	

CPU time since last call: 0.032 seconds.

Total CPU time: 0.032 seconds.

Current dynamic memory usage = 131072,
Dynamic memory limit = -491521.

