
Circuit: ** NMOSFET: Benchmarking Implementation of BSIM4.6.0 by Mohan V. Dunga 12/13/2006.

Circuit: ** NMOSFET: Benchmarking Implementation of BSIM4.6.0 by Mohan V. Dunga 12/13/2006.
Date: Fri Apr  8 01:35:56  2011


** NMOSFET: Benchmarking Implementation of BSIM4.6.0 by Mohan V. Dunga 12/13/2006.
DC transfer characteristic  Fri Apr  8 01:35:56  2011
--------------------------------------------------------------------------------
Index   sweep           v(1)            vds#branch      
--------------------------------------------------------------------------------
0	0.000000e+00	0.000000e+00	-9.067140e-26	
1	2.000000e-02	0.000000e+00	-1.003605e-07	
2	4.000000e-02	0.000000e+00	-1.519374e-07	
3	6.000000e-02	0.000000e+00	-1.746692e-07	
4	8.000000e-02	0.000000e+00	-1.854474e-07	
5	1.000000e-01	0.000000e+00	-1.920074e-07	
6	1.200000e-01	0.000000e+00	-1.969724e-07	
7	1.400000e-01	0.000000e+00	-2.012410e-07	
8	1.600000e-01	0.000000e+00	-2.051637e-07	
9	1.800000e-01	0.000000e+00	-2.088972e-07	
10	2.000000e-01	0.000000e+00	-2.125208e-07	
11	2.200000e-01	0.000000e+00	-2.160786e-07	
12	2.400000e-01	0.000000e+00	-2.195977e-07	
13	2.600000e-01	0.000000e+00	-2.230959e-07	
14	2.800000e-01	0.000000e+00	-2.265856e-07	
15	3.000000e-01	0.000000e+00	-2.300765e-07	
16	3.200000e-01	0.000000e+00	-2.335763e-07	
17	3.400000e-01	0.000000e+00	-2.370919e-07	
18	3.600000e-01	0.000000e+00	-2.406293e-07	
19	3.800000e-01	0.000000e+00	-2.441946e-07	
20	4.000000e-01	0.000000e+00	-2.477937e-07	
21	4.200000e-01	0.000000e+00	-2.514328e-07	
22	4.400000e-01	0.000000e+00	-2.551184e-07	
23	4.600000e-01	0.000000e+00	-2.588575e-07	
24	4.800000e-01	0.000000e+00	-2.626578e-07	
25	5.000000e-01	0.000000e+00	-2.665276e-07	
26	5.200000e-01	0.000000e+00	-2.704762e-07	
27	5.400000e-01	0.000000e+00	-2.745138e-07	
28	5.600000e-01	0.000000e+00	-2.786519e-07	
29	5.800000e-01	0.000000e+00	-2.829032e-07	
30	6.000000e-01	0.000000e+00	-2.872819e-07	
31	6.200000e-01	0.000000e+00	-2.918038e-07	
32	6.400000e-01	0.000000e+00	-2.964866e-07	
33	6.600000e-01	0.000000e+00	-3.013500e-07	
34	6.800000e-01	0.000000e+00	-3.064162e-07	
35	7.000000e-01	0.000000e+00	-3.117098e-07	
36	7.200000e-01	0.000000e+00	-3.172583e-07	
37	7.400000e-01	0.000000e+00	-3.230925e-07	
38	7.600000e-01	0.000000e+00	-3.292467e-07	
39	7.800000e-01	0.000000e+00	-3.357590e-07	
40	8.000000e-01	0.000000e+00	-3.426723e-07	
41	8.200000e-01	0.000000e+00	-3.500342e-07	
42	8.400000e-01	0.000000e+00	-3.578975e-07	
43	8.600000e-01	0.000000e+00	-3.663215e-07	
44	8.800000e-01	0.000000e+00	-3.753718e-07	
45	9.000000e-01	0.000000e+00	-3.851218e-07	
46	9.200000e-01	0.000000e+00	-3.956530e-07	
47	9.400000e-01	0.000000e+00	-4.070560e-07	
48	9.600000e-01	0.000000e+00	-4.194316e-07	
49	9.800000e-01	0.000000e+00	-4.328919e-07	
50	1.000000e+00	0.000000e+00	-4.475615e-07	
51	1.020000e+00	0.000000e+00	-4.635787e-07	
52	1.040000e+00	0.000000e+00	-4.810973e-07	
53	1.060000e+00	0.000000e+00	-5.002877e-07	
54	1.080000e+00	0.000000e+00	-5.213395e-07	

Index   sweep           v(1)            vds#branch      
--------------------------------------------------------------------------------
55	1.100000e+00	0.000000e+00	-5.444626e-07	
56	1.120000e+00	0.000000e+00	-5.698903e-07	
57	1.140000e+00	0.000000e+00	-5.978809e-07	
58	1.160000e+00	0.000000e+00	-6.287210e-07	
59	1.180000e+00	0.000000e+00	-6.627283e-07	
60	0.000000e+00	2.000000e-01	1.807300e-10	
61	2.000000e-02	2.000000e-01	-5.722838e-06	
62	4.000000e-02	2.000000e-01	-8.993775e-06	
63	6.000000e-02	2.000000e-01	-1.059085e-05	
64	8.000000e-02	2.000000e-01	-1.135532e-05	
65	1.000000e-01	2.000000e-01	-1.179090e-05	
66	1.200000e-01	2.000000e-01	-1.209865e-05	
67	1.400000e-01	2.000000e-01	-1.235097e-05	
68	1.600000e-01	2.000000e-01	-1.257593e-05	
69	1.800000e-01	2.000000e-01	-1.278583e-05	
70	2.000000e-01	2.000000e-01	-1.298672e-05	
71	2.200000e-01	2.000000e-01	-1.318186e-05	
72	2.400000e-01	2.000000e-01	-1.337315e-05	
73	2.600000e-01	2.000000e-01	-1.356179e-05	
74	2.800000e-01	2.000000e-01	-1.374854e-05	
75	3.000000e-01	2.000000e-01	-1.393396e-05	
76	3.200000e-01	2.000000e-01	-1.411840e-05	
77	3.400000e-01	2.000000e-01	-1.430216e-05	
78	3.600000e-01	2.000000e-01	-1.448543e-05	
79	3.800000e-01	2.000000e-01	-1.466837e-05	
80	4.000000e-01	2.000000e-01	-1.485110e-05	
81	4.200000e-01	2.000000e-01	-1.503373e-05	
82	4.400000e-01	2.000000e-01	-1.521632e-05	
83	4.600000e-01	2.000000e-01	-1.539894e-05	
84	4.800000e-01	2.000000e-01	-1.558165e-05	
85	5.000000e-01	2.000000e-01	-1.576448e-05	
86	5.200000e-01	2.000000e-01	-1.594748e-05	
87	5.400000e-01	2.000000e-01	-1.613066e-05	
88	5.600000e-01	2.000000e-01	-1.631407e-05	
89	5.800000e-01	2.000000e-01	-1.649773e-05	
90	6.000000e-01	2.000000e-01	-1.668164e-05	
91	6.200000e-01	2.000000e-01	-1.686584e-05	
92	6.400000e-01	2.000000e-01	-1.705034e-05	
93	6.600000e-01	2.000000e-01	-1.723516e-05	
94	6.800000e-01	2.000000e-01	-1.742031e-05	
95	7.000000e-01	2.000000e-01	-1.760581e-05	
96	7.200000e-01	2.000000e-01	-1.779167e-05	
97	7.400000e-01	2.000000e-01	-1.797791e-05	
98	7.600000e-01	2.000000e-01	-1.816455e-05	
99	7.800000e-01	2.000000e-01	-1.835159e-05	
100	8.000000e-01	2.000000e-01	-1.853907e-05	
101	8.200000e-01	2.000000e-01	-1.872700e-05	
102	8.400000e-01	2.000000e-01	-1.891540e-05	
103	8.600000e-01	2.000000e-01	-1.910429e-05	
104	8.800000e-01	2.000000e-01	-1.929370e-05	
105	9.000000e-01	2.000000e-01	-1.948366e-05	
106	9.200000e-01	2.000000e-01	-1.967421e-05	
107	9.400000e-01	2.000000e-01	-1.986537e-05	
108	9.600000e-01	2.000000e-01	-2.005719e-05	
109	9.800000e-01	2.000000e-01	-2.024971e-05	
110	1.000000e+00	2.000000e-01	-2.044297e-05	
111	1.020000e+00	2.000000e-01	-2.063704e-05	
112	1.040000e+00	2.000000e-01	-2.083198e-05	

Index   sweep           v(1)            vds#branch      
--------------------------------------------------------------------------------
113	1.060000e+00	2.000000e-01	-2.102784e-05	
114	1.080000e+00	2.000000e-01	-2.122471e-05	
115	1.100000e+00	2.000000e-01	-2.142267e-05	
116	1.120000e+00	2.000000e-01	-2.162181e-05	
117	1.140000e+00	2.000000e-01	-2.182223e-05	
118	1.160000e+00	2.000000e-01	-2.202405e-05	
119	1.180000e+00	2.000000e-01	-2.222740e-05	
120	0.000000e+00	4.000000e-01	3.114042e-09	
121	2.000000e-02	4.000000e-01	-7.035012e-05	
122	4.000000e-02	4.000000e-01	-1.270616e-04	
123	6.000000e-02	4.000000e-01	-1.709949e-04	
124	8.000000e-02	4.000000e-01	-2.032822e-04	
125	1.000000e-01	4.000000e-01	-2.255674e-04	
126	1.200000e-01	4.000000e-01	-2.401415e-04	
127	1.400000e-01	4.000000e-01	-2.495794e-04	
128	1.600000e-01	4.000000e-01	-2.560142e-04	
129	1.800000e-01	4.000000e-01	-2.607959e-04	
130	2.000000e-01	4.000000e-01	-2.646559e-04	
131	2.200000e-01	4.000000e-01	-2.679739e-04	
132	2.400000e-01	4.000000e-01	-2.709524e-04	
133	2.600000e-01	4.000000e-01	-2.737054e-04	
134	2.800000e-01	4.000000e-01	-2.763011e-04	
135	3.000000e-01	4.000000e-01	-2.787827e-04	
136	3.200000e-01	4.000000e-01	-2.811786e-04	
137	3.400000e-01	4.000000e-01	-2.835086e-04	
138	3.600000e-01	4.000000e-01	-2.857869e-04	
139	3.800000e-01	4.000000e-01	-2.880239e-04	
140	4.000000e-01	4.000000e-01	-2.902274e-04	
141	4.200000e-01	4.000000e-01	-2.924034e-04	
142	4.400000e-01	4.000000e-01	-2.945567e-04	
143	4.600000e-01	4.000000e-01	-2.966909e-04	
144	4.800000e-01	4.000000e-01	-2.988091e-04	
145	5.000000e-01	4.000000e-01	-3.009138e-04	
146	5.200000e-01	4.000000e-01	-3.030069e-04	
147	5.400000e-01	4.000000e-01	-3.050902e-04	
148	5.600000e-01	4.000000e-01	-3.071650e-04	
149	5.800000e-01	4.000000e-01	-3.092325e-04	
150	6.000000e-01	4.000000e-01	-3.112937e-04	
151	6.200000e-01	4.000000e-01	-3.133494e-04	
152	6.400000e-01	4.000000e-01	-3.154004e-04	
153	6.600000e-01	4.000000e-01	-3.174474e-04	
154	6.800000e-01	4.000000e-01	-3.194908e-04	
155	7.000000e-01	4.000000e-01	-3.215311e-04	
156	7.200000e-01	4.000000e-01	-3.235688e-04	
157	7.400000e-01	4.000000e-01	-3.256043e-04	
158	7.600000e-01	4.000000e-01	-3.276377e-04	
159	7.800000e-01	4.000000e-01	-3.296696e-04	
160	8.000000e-01	4.000000e-01	-3.317000e-04	
161	8.200000e-01	4.000000e-01	-3.337293e-04	
162	8.400000e-01	4.000000e-01	-3.357576e-04	
163	8.600000e-01	4.000000e-01	-3.377852e-04	
164	8.800000e-01	4.000000e-01	-3.398123e-04	
165	9.000000e-01	4.000000e-01	-3.418390e-04	
166	9.200000e-01	4.000000e-01	-3.438655e-04	
167	9.400000e-01	4.000000e-01	-3.458920e-04	
168	9.600000e-01	4.000000e-01	-3.479187e-04	
169	9.800000e-01	4.000000e-01	-3.499456e-04	
170	1.000000e+00	4.000000e-01	-3.519731e-04	

Index   sweep           v(1)            vds#branch      
--------------------------------------------------------------------------------
171	1.020000e+00	4.000000e-01	-3.540012e-04	
172	1.040000e+00	4.000000e-01	-3.560301e-04	
173	1.060000e+00	4.000000e-01	-3.580601e-04	
174	1.080000e+00	4.000000e-01	-3.600912e-04	
175	1.100000e+00	4.000000e-01	-3.621238e-04	
176	1.120000e+00	4.000000e-01	-3.641579e-04	
177	1.140000e+00	4.000000e-01	-3.661939e-04	
178	1.160000e+00	4.000000e-01	-3.682319e-04	
179	1.180000e+00	4.000000e-01	-3.702723e-04	
180	0.000000e+00	6.000000e-01	1.903301e-08	
181	2.000000e-02	6.000000e-01	-1.798950e-04	
182	4.000000e-02	6.000000e-01	-3.421825e-04	
183	6.000000e-02	6.000000e-01	-4.874525e-04	
184	8.000000e-02	6.000000e-01	-6.163065e-04	
185	1.000000e-01	6.000000e-01	-7.293499e-04	
186	1.200000e-01	6.000000e-01	-8.272120e-04	
187	1.400000e-01	6.000000e-01	-9.105798e-04	
188	1.600000e-01	6.000000e-01	-9.802533e-04	
189	1.800000e-01	6.000000e-01	-1.037230e-03	
190	2.000000e-01	6.000000e-01	-1.082807e-03	
191	2.200000e-01	6.000000e-01	-1.118640e-03	
192	2.400000e-01	6.000000e-01	-1.146663e-03	
193	2.600000e-01	6.000000e-01	-1.168826e-03	
194	2.800000e-01	6.000000e-01	-1.186802e-03	
195	3.000000e-01	6.000000e-01	-1.201852e-03	
196	3.200000e-01	6.000000e-01	-1.214846e-03	
197	3.400000e-01	6.000000e-01	-1.226365e-03	
198	3.600000e-01	6.000000e-01	-1.236798e-03	
199	3.800000e-01	6.000000e-01	-1.246408e-03	
200	4.000000e-01	6.000000e-01	-1.255380e-03	
201	4.200000e-01	6.000000e-01	-1.263848e-03	
202	4.400000e-01	6.000000e-01	-1.271909e-03	
203	4.600000e-01	6.000000e-01	-1.279636e-03	
204	4.800000e-01	6.000000e-01	-1.287088e-03	
205	5.000000e-01	6.000000e-01	-1.294309e-03	
206	5.200000e-01	6.000000e-01	-1.301334e-03	
207	5.400000e-01	6.000000e-01	-1.308192e-03	
208	5.600000e-01	6.000000e-01	-1.314906e-03	
209	5.800000e-01	6.000000e-01	-1.321495e-03	
210	6.000000e-01	6.000000e-01	-1.327975e-03	
211	6.200000e-01	6.000000e-01	-1.334359e-03	
212	6.400000e-01	6.000000e-01	-1.340659e-03	
213	6.600000e-01	6.000000e-01	-1.346883e-03	
214	6.800000e-01	6.000000e-01	-1.353041e-03	
215	7.000000e-01	6.000000e-01	-1.359138e-03	
216	7.200000e-01	6.000000e-01	-1.365181e-03	
217	7.400000e-01	6.000000e-01	-1.371175e-03	
218	7.600000e-01	6.000000e-01	-1.377125e-03	
219	7.800000e-01	6.000000e-01	-1.383033e-03	
220	8.000000e-01	6.000000e-01	-1.388905e-03	
221	8.200000e-01	6.000000e-01	-1.394743e-03	
222	8.400000e-01	6.000000e-01	-1.400549e-03	
223	8.600000e-01	6.000000e-01	-1.406326e-03	
224	8.800000e-01	6.000000e-01	-1.412077e-03	
225	9.000000e-01	6.000000e-01	-1.417802e-03	
226	9.200000e-01	6.000000e-01	-1.423505e-03	
227	9.400000e-01	6.000000e-01	-1.429186e-03	
228	9.600000e-01	6.000000e-01	-1.434846e-03	

Index   sweep           v(1)            vds#branch      
--------------------------------------------------------------------------------
229	9.800000e-01	6.000000e-01	-1.440488e-03	
230	1.000000e+00	6.000000e-01	-1.446113e-03	
231	1.020000e+00	6.000000e-01	-1.451721e-03	
232	1.040000e+00	6.000000e-01	-1.457314e-03	
233	1.060000e+00	6.000000e-01	-1.462893e-03	
234	1.080000e+00	6.000000e-01	-1.468458e-03	
235	1.100000e+00	6.000000e-01	-1.474012e-03	
236	1.120000e+00	6.000000e-01	-1.479554e-03	
237	1.140000e+00	6.000000e-01	-1.485086e-03	
238	1.160000e+00	6.000000e-01	-1.490609e-03	
239	1.180000e+00	6.000000e-01	-1.496123e-03	
240	0.000000e+00	8.000000e-01	8.004479e-08	
241	2.000000e-02	8.000000e-01	-2.583805e-04	
242	4.000000e-02	8.000000e-01	-4.999047e-04	
243	6.000000e-02	8.000000e-01	-7.249433e-04	
244	8.000000e-02	8.000000e-01	-9.339355e-04	
245	1.000000e-01	8.000000e-01	-1.127311e-03	
246	1.200000e-01	8.000000e-01	-1.305493e-03	
247	1.400000e-01	8.000000e-01	-1.468900e-03	
248	1.600000e-01	8.000000e-01	-1.617950e-03	
249	1.800000e-01	8.000000e-01	-1.753067e-03	
250	2.000000e-01	8.000000e-01	-1.874694e-03	
251	2.200000e-01	8.000000e-01	-1.983299e-03	
252	2.400000e-01	8.000000e-01	-2.079403e-03	
253	2.600000e-01	8.000000e-01	-2.163605e-03	
254	2.800000e-01	8.000000e-01	-2.236623e-03	
255	3.000000e-01	8.000000e-01	-2.299335e-03	
256	3.200000e-01	8.000000e-01	-2.352806e-03	
257	3.400000e-01	8.000000e-01	-2.398271e-03	
258	3.600000e-01	8.000000e-01	-2.437050e-03	
259	3.800000e-01	8.000000e-01	-2.470428e-03	
260	4.000000e-01	8.000000e-01	-2.499531e-03	
261	4.200000e-01	8.000000e-01	-2.525279e-03	
262	4.400000e-01	8.000000e-01	-2.548387e-03	
263	4.600000e-01	8.000000e-01	-2.569397e-03	
264	4.800000e-01	8.000000e-01	-2.588717e-03	
265	5.000000e-01	8.000000e-01	-2.606659e-03	
266	5.200000e-01	8.000000e-01	-2.623465e-03	
267	5.400000e-01	8.000000e-01	-2.639323e-03	
268	5.600000e-01	8.000000e-01	-2.654382e-03	
269	5.800000e-01	8.000000e-01	-2.668761e-03	
270	6.000000e-01	8.000000e-01	-2.682558e-03	
271	6.200000e-01	8.000000e-01	-2.695854e-03	
272	6.400000e-01	8.000000e-01	-2.708713e-03	
273	6.600000e-01	8.000000e-01	-2.721191e-03	
274	6.800000e-01	8.000000e-01	-2.733335e-03	
275	7.000000e-01	8.000000e-01	-2.745182e-03	
276	7.200000e-01	8.000000e-01	-2.756766e-03	
277	7.400000e-01	8.000000e-01	-2.768116e-03	
278	7.600000e-01	8.000000e-01	-2.779255e-03	
279	7.800000e-01	8.000000e-01	-2.790205e-03	
280	8.000000e-01	8.000000e-01	-2.800984e-03	
281	8.200000e-01	8.000000e-01	-2.811609e-03	
282	8.400000e-01	8.000000e-01	-2.822091e-03	
283	8.600000e-01	8.000000e-01	-2.832445e-03	
284	8.800000e-01	8.000000e-01	-2.842680e-03	
285	9.000000e-01	8.000000e-01	-2.852806e-03	
286	9.200000e-01	8.000000e-01	-2.862832e-03	

Index   sweep           v(1)            vds#branch      
--------------------------------------------------------------------------------
287	9.400000e-01	8.000000e-01	-2.872764e-03	
288	9.600000e-01	8.000000e-01	-2.882611e-03	
289	9.800000e-01	8.000000e-01	-2.892376e-03	
290	1.000000e+00	8.000000e-01	-2.902067e-03	
291	1.020000e+00	8.000000e-01	-2.911688e-03	
292	1.040000e+00	8.000000e-01	-2.921243e-03	
293	1.060000e+00	8.000000e-01	-2.930736e-03	
294	1.080000e+00	8.000000e-01	-2.940172e-03	
295	1.100000e+00	8.000000e-01	-2.949553e-03	
296	1.120000e+00	8.000000e-01	-2.958883e-03	
297	1.140000e+00	8.000000e-01	-2.968165e-03	
298	1.160000e+00	8.000000e-01	-2.977401e-03	
299	1.180000e+00	8.000000e-01	-2.986595e-03	
300	0.000000e+00	1.000000e+00	2.806023e-07	
301	2.000000e-02	1.000000e+00	-3.061693e-04	
302	4.000000e-02	1.000000e+00	-5.974939e-04	
303	6.000000e-02	1.000000e+00	-8.740165e-04	
304	8.000000e-02	1.000000e+00	-1.136055e-03	
305	1.000000e-01	1.000000e+00	-1.383919e-03	
306	1.200000e-01	1.000000e+00	-1.617915e-03	
307	1.400000e-01	1.000000e+00	-1.838341e-03	
308	1.600000e-01	1.000000e+00	-2.045495e-03	
309	1.800000e-01	1.000000e+00	-2.239668e-03	
310	2.000000e-01	1.000000e+00	-2.421154e-03	
311	2.200000e-01	1.000000e+00	-2.590244e-03	
312	2.400000e-01	1.000000e+00	-2.747237e-03	
313	2.600000e-01	1.000000e+00	-2.892436e-03	
314	2.800000e-01	1.000000e+00	-3.026158e-03	
315	3.000000e-01	1.000000e+00	-3.148739e-03	
316	3.200000e-01	1.000000e+00	-3.260544e-03	
317	3.400000e-01	1.000000e+00	-3.361980e-03	
318	3.600000e-01	1.000000e+00	-3.453511e-03	
319	3.800000e-01	1.000000e+00	-3.535675e-03	
320	4.000000e-01	1.000000e+00	-3.609100e-03	
321	4.200000e-01	1.000000e+00	-3.674518e-03	
322	4.400000e-01	1.000000e+00	-3.732746e-03	
323	4.600000e-01	1.000000e+00	-3.784657e-03	
324	4.800000e-01	1.000000e+00	-3.831127e-03	
325	5.000000e-01	1.000000e+00	-3.872975e-03	
326	5.200000e-01	1.000000e+00	-3.910928e-03	
327	5.400000e-01	1.000000e+00	-3.945605e-03	
328	5.600000e-01	1.000000e+00	-3.977520e-03	
329	5.800000e-01	1.000000e+00	-4.007094e-03	
330	6.000000e-01	1.000000e+00	-4.034676e-03	
331	6.200000e-01	1.000000e+00	-4.060549e-03	
332	6.400000e-01	1.000000e+00	-4.084952e-03	
333	6.600000e-01	1.000000e+00	-4.108081e-03	
334	6.800000e-01	1.000000e+00	-4.130101e-03	
335	7.000000e-01	1.000000e+00	-4.151150e-03	
336	7.200000e-01	1.000000e+00	-4.171348e-03	
337	7.400000e-01	1.000000e+00	-4.190793e-03	
338	7.600000e-01	1.000000e+00	-4.209571e-03	
339	7.800000e-01	1.000000e+00	-4.227756e-03	
340	8.000000e-01	1.000000e+00	-4.245411e-03	
341	8.200000e-01	1.000000e+00	-4.262590e-03	
342	8.400000e-01	1.000000e+00	-4.279341e-03	
343	8.600000e-01	1.000000e+00	-4.295705e-03	
344	8.800000e-01	1.000000e+00	-4.311719e-03	

Index   sweep           v(1)            vds#branch      
--------------------------------------------------------------------------------
345	9.000000e-01	1.000000e+00	-4.327414e-03	
346	9.200000e-01	1.000000e+00	-4.342818e-03	
347	9.400000e-01	1.000000e+00	-4.357956e-03	
348	9.600000e-01	1.000000e+00	-4.372849e-03	
349	9.800000e-01	1.000000e+00	-4.387517e-03	
350	1.000000e+00	1.000000e+00	-4.401978e-03	
351	1.020000e+00	1.000000e+00	-4.416246e-03	
352	1.040000e+00	1.000000e+00	-4.430335e-03	
353	1.060000e+00	1.000000e+00	-4.444258e-03	
354	1.080000e+00	1.000000e+00	-4.458026e-03	
355	1.100000e+00	1.000000e+00	-4.471649e-03	
356	1.120000e+00	1.000000e+00	-4.485136e-03	
357	1.140000e+00	1.000000e+00	-4.498496e-03	
358	1.160000e+00	1.000000e+00	-4.511736e-03	
359	1.180000e+00	1.000000e+00	-4.524864e-03	
360	0.000000e+00	1.200000e+00	8.841239e-07	
361	2.000000e-02	1.200000e+00	-3.331473e-04	
362	4.000000e-02	1.200000e+00	-6.539862e-04	
363	6.000000e-02	1.200000e+00	-9.618622e-04	
364	8.000000e-02	1.200000e+00	-1.257004e-03	
365	1.000000e-01	1.200000e+00	-1.539637e-03	
366	1.200000e-01	1.200000e+00	-1.809983e-03	
367	1.400000e-01	1.200000e+00	-2.068258e-03	
368	1.600000e-01	1.200000e+00	-2.314678e-03	
369	1.800000e-01	1.200000e+00	-2.549455e-03	
370	2.000000e-01	1.200000e+00	-2.772798e-03	
371	2.200000e-01	1.200000e+00	-2.984918e-03	
372	2.400000e-01	1.200000e+00	-3.186022e-03	
373	2.600000e-01	1.200000e+00	-3.376318e-03	
374	2.800000e-01	1.200000e+00	-3.556018e-03	
375	3.000000e-01	1.200000e+00	-3.725334e-03	
376	3.200000e-01	1.200000e+00	-3.884485e-03	
377	3.400000e-01	1.200000e+00	-4.033697e-03	
378	3.600000e-01	1.200000e+00	-4.173208e-03	
379	3.800000e-01	1.200000e+00	-4.303267e-03	
380	4.000000e-01	1.200000e+00	-4.424148e-03	
381	4.200000e-01	1.200000e+00	-4.536148e-03	
382	4.400000e-01	1.200000e+00	-4.639598e-03	
383	4.600000e-01	1.200000e+00	-4.734872e-03	
384	4.800000e-01	1.200000e+00	-4.822394e-03	
385	5.000000e-01	1.200000e+00	-4.902643e-03	
386	5.200000e-01	1.200000e+00	-4.976152e-03	
387	5.400000e-01	1.200000e+00	-5.043496e-03	
388	5.600000e-01	1.200000e+00	-5.105275e-03	
389	5.800000e-01	1.200000e+00	-5.162080e-03	
390	6.000000e-01	1.200000e+00	-5.214477e-03	
391	6.200000e-01	1.200000e+00	-5.262976e-03	
392	6.400000e-01	1.200000e+00	-5.308035e-03	
393	6.600000e-01	1.200000e+00	-5.350055e-03	
394	6.800000e-01	1.200000e+00	-5.389387e-03	
395	7.000000e-01	1.200000e+00	-5.426339e-03	
396	7.200000e-01	1.200000e+00	-5.461181e-03	
397	7.400000e-01	1.200000e+00	-5.494151e-03	
398	7.600000e-01	1.200000e+00	-5.525456e-03	
399	7.800000e-01	1.200000e+00	-5.555277e-03	
400	8.000000e-01	1.200000e+00	-5.583776e-03	
401	8.200000e-01	1.200000e+00	-5.611091e-03	
402	8.400000e-01	1.200000e+00	-5.637345e-03	

Index   sweep           v(1)            vds#branch      
--------------------------------------------------------------------------------
403	8.600000e-01	1.200000e+00	-5.662645e-03	
404	8.800000e-01	1.200000e+00	-5.687087e-03	
405	9.000000e-01	1.200000e+00	-5.710753e-03	
406	9.200000e-01	1.200000e+00	-5.733716e-03	
407	9.400000e-01	1.200000e+00	-5.756041e-03	
408	9.600000e-01	1.200000e+00	-5.777785e-03	
409	9.800000e-01	1.200000e+00	-5.798998e-03	
410	1.000000e+00	1.200000e+00	-5.819726e-03	
411	1.020000e+00	1.200000e+00	-5.840009e-03	
412	1.040000e+00	1.200000e+00	-5.859881e-03	
413	1.060000e+00	1.200000e+00	-5.879376e-03	
414	1.080000e+00	1.200000e+00	-5.898521e-03	
415	1.100000e+00	1.200000e+00	-5.917342e-03	
416	1.120000e+00	1.200000e+00	-5.935863e-03	
417	1.140000e+00	1.200000e+00	-5.954103e-03	
418	1.160000e+00	1.200000e+00	-5.972082e-03	
419	1.180000e+00	1.200000e+00	-5.989816e-03	

CPU time since last call: 0.020 seconds.

Total CPU time: 0.020 seconds.

Current dynamic memory usage = 262144,
Dynamic memory limit = -211390465.

