
Circuit: ** NMOSFET: Benchmarking Implementation of BSIM4.6.1 by Mohan V. Dunga 12/13/2006.

Circuit: ** NMOSFET: Benchmarking Implementation of BSIM4.6.1 by Mohan V. Dunga 12/13/2006.
Date: Thu Jul 31 17:05:32  2008


** NMOSFET: Benchmarking Implementation of BSIM4.6.1 by Mohan V. Dunga 12/13/2006.
DC transfer characteristic  Thu Jul 31 17:05:32  2008
--------------------------------------------------------------------------------
Index   sweep           v(1)            vds#branch      
--------------------------------------------------------------------------------
0	0.000000e+00	0.000000e+00	-4.50728e-41	
1	2.000000e-02	0.000000e+00	-5.97952e-08	
2	4.000000e-02	0.000000e+00	-9.07006e-08	
3	6.000000e-02	0.000000e+00	-1.04353e-07	
4	8.000000e-02	0.000000e+00	-1.10802e-07	
5	1.000000e-01	0.000000e+00	-1.14709e-07	
6	1.200000e-01	0.000000e+00	-1.17664e-07	
7	1.400000e-01	0.000000e+00	-1.20207e-07	
8	1.600000e-01	0.000000e+00	-1.22550e-07	
9	1.800000e-01	0.000000e+00	-1.24786e-07	
10	2.000000e-01	0.000000e+00	-1.26961e-07	
11	2.200000e-01	0.000000e+00	-1.29103e-07	
12	2.400000e-01	0.000000e+00	-1.31228e-07	
13	2.600000e-01	0.000000e+00	-1.33347e-07	
14	2.800000e-01	0.000000e+00	-1.35467e-07	
15	3.000000e-01	0.000000e+00	-1.37596e-07	
16	3.200000e-01	0.000000e+00	-1.39738e-07	
17	3.400000e-01	0.000000e+00	-1.41899e-07	
18	3.600000e-01	0.000000e+00	-1.44084e-07	
19	3.800000e-01	0.000000e+00	-1.46298e-07	
20	4.000000e-01	0.000000e+00	-1.48547e-07	
21	4.200000e-01	0.000000e+00	-1.50835e-07	
22	4.400000e-01	0.000000e+00	-1.53168e-07	
23	4.600000e-01	0.000000e+00	-1.55554e-07	
24	4.800000e-01	0.000000e+00	-1.58000e-07	
25	5.000000e-01	0.000000e+00	-1.60514e-07	
26	5.200000e-01	0.000000e+00	-1.63105e-07	
27	5.400000e-01	0.000000e+00	-1.65783e-07	
28	5.600000e-01	0.000000e+00	-1.68559e-07	
29	5.800000e-01	0.000000e+00	-1.71446e-07	
30	6.000000e-01	0.000000e+00	-1.74458e-07	
31	6.200000e-01	0.000000e+00	-1.77611e-07	
32	6.400000e-01	0.000000e+00	-1.80922e-07	
33	6.600000e-01	0.000000e+00	-1.84412e-07	
34	6.800000e-01	0.000000e+00	-1.88101e-07	
35	7.000000e-01	0.000000e+00	-1.92016e-07	
36	7.200000e-01	0.000000e+00	-1.96182e-07	
37	7.400000e-01	0.000000e+00	-2.00632e-07	
38	7.600000e-01	0.000000e+00	-2.05399e-07	
39	7.800000e-01	0.000000e+00	-2.10521e-07	
40	8.000000e-01	0.000000e+00	-2.16041e-07	
41	8.200000e-01	0.000000e+00	-2.22007e-07	
42	8.400000e-01	0.000000e+00	-2.28472e-07	
43	8.600000e-01	0.000000e+00	-2.35494e-07	
44	8.800000e-01	0.000000e+00	-2.43140e-07	
45	9.000000e-01	0.000000e+00	-2.51483e-07	
46	9.200000e-01	0.000000e+00	-2.60604e-07	
47	9.400000e-01	0.000000e+00	-2.70593e-07	
48	9.600000e-01	0.000000e+00	-2.81553e-07	
49	9.800000e-01	0.000000e+00	-2.93594e-07	
50	1.000000e+00	0.000000e+00	-3.06841e-07	
51	1.020000e+00	0.000000e+00	-3.21432e-07	
52	1.040000e+00	0.000000e+00	-3.37522e-07	
53	1.060000e+00	0.000000e+00	-3.55280e-07	
54	1.080000e+00	0.000000e+00	-3.74896e-07	

Index   sweep           v(1)            vds#branch      
--------------------------------------------------------------------------------
55	1.100000e+00	0.000000e+00	-3.96581e-07	
56	1.120000e+00	0.000000e+00	-4.20566e-07	
57	1.140000e+00	0.000000e+00	-4.47110e-07	
58	1.160000e+00	0.000000e+00	-4.76500e-07	
59	1.180000e+00	0.000000e+00	-5.09054e-07	
60	1.200000e+00	0.000000e+00	-5.45123e-07	
61	0.000000e+00	2.000000e-01	1.807300e-10	
62	2.000000e-02	2.000000e-01	-3.33927e-06	
63	4.000000e-02	2.000000e-01	-5.25927e-06	
64	6.000000e-02	2.000000e-01	-6.20040e-06	
65	8.000000e-02	2.000000e-01	-6.64972e-06	
66	1.000000e-01	2.000000e-01	-6.90412e-06	
67	1.200000e-01	2.000000e-01	-7.08316e-06	
68	1.400000e-01	2.000000e-01	-7.22984e-06	
69	1.600000e-01	2.000000e-01	-7.36073e-06	
70	1.800000e-01	2.000000e-01	-7.48302e-06	
71	2.000000e-01	2.000000e-01	-7.60021e-06	
72	2.200000e-01	2.000000e-01	-7.71417e-06	
73	2.400000e-01	2.000000e-01	-7.82600e-06	
74	2.600000e-01	2.000000e-01	-7.93635e-06	
75	2.800000e-01	2.000000e-01	-8.04568e-06	
76	3.000000e-01	2.000000e-01	-8.15427e-06	
77	3.200000e-01	2.000000e-01	-8.26234e-06	
78	3.400000e-01	2.000000e-01	-8.37004e-06	
79	3.600000e-01	2.000000e-01	-8.47748e-06	
80	3.800000e-01	2.000000e-01	-8.58476e-06	
81	4.000000e-01	2.000000e-01	-8.69194e-06	
82	4.200000e-01	2.000000e-01	-8.79907e-06	
83	4.400000e-01	2.000000e-01	-8.90621e-06	
84	4.600000e-01	2.000000e-01	-9.01337e-06	
85	4.800000e-01	2.000000e-01	-9.12061e-06	
86	5.000000e-01	2.000000e-01	-9.22793e-06	
87	5.200000e-01	2.000000e-01	-9.33536e-06	
88	5.400000e-01	2.000000e-01	-9.44292e-06	
89	5.600000e-01	2.000000e-01	-9.55062e-06	
90	5.800000e-01	2.000000e-01	-9.65849e-06	
91	6.000000e-01	2.000000e-01	-9.76653e-06	
92	6.200000e-01	2.000000e-01	-9.87475e-06	
93	6.400000e-01	2.000000e-01	-9.98317e-06	
94	6.600000e-01	2.000000e-01	-1.00918e-05	
95	6.800000e-01	2.000000e-01	-1.02007e-05	
96	7.000000e-01	2.000000e-01	-1.03097e-05	
97	7.200000e-01	2.000000e-01	-1.04191e-05	
98	7.400000e-01	2.000000e-01	-1.05287e-05	
99	7.600000e-01	2.000000e-01	-1.06385e-05	
100	7.800000e-01	2.000000e-01	-1.07487e-05	
101	8.000000e-01	2.000000e-01	-1.08591e-05	
102	8.200000e-01	2.000000e-01	-1.09699e-05	
103	8.400000e-01	2.000000e-01	-1.10810e-05	
104	8.600000e-01	2.000000e-01	-1.11925e-05	
105	8.800000e-01	2.000000e-01	-1.13044e-05	
106	9.000000e-01	2.000000e-01	-1.14167e-05	
107	9.200000e-01	2.000000e-01	-1.15294e-05	
108	9.400000e-01	2.000000e-01	-1.16426e-05	
109	9.600000e-01	2.000000e-01	-1.17564e-05	
110	9.800000e-01	2.000000e-01	-1.18706e-05	
111	1.000000e+00	2.000000e-01	-1.19855e-05	
112	1.020000e+00	2.000000e-01	-1.21011e-05	

Index   sweep           v(1)            vds#branch      
--------------------------------------------------------------------------------
113	1.040000e+00	2.000000e-01	-1.22173e-05	
114	1.060000e+00	2.000000e-01	-1.23343e-05	
115	1.080000e+00	2.000000e-01	-1.24522e-05	
116	1.100000e+00	2.000000e-01	-1.25710e-05	
117	1.120000e+00	2.000000e-01	-1.26908e-05	
118	1.140000e+00	2.000000e-01	-1.28117e-05	
119	1.160000e+00	2.000000e-01	-1.29339e-05	
120	1.180000e+00	2.000000e-01	-1.30574e-05	
121	1.200000e+00	2.000000e-01	-1.31823e-05	
122	0.000000e+00	4.000000e-01	3.114042e-09	
123	2.000000e-02	4.000000e-01	-3.90967e-05	
124	4.000000e-02	4.000000e-01	-7.07643e-05	
125	6.000000e-02	4.000000e-01	-9.54268e-05	
126	8.000000e-02	4.000000e-01	-1.13659e-04	
127	1.000000e-01	4.000000e-01	-1.26316e-04	
128	1.200000e-01	4.000000e-01	-1.34614e-04	
129	1.400000e-01	4.000000e-01	-1.39967e-04	
130	1.600000e-01	4.000000e-01	-1.43584e-04	
131	1.800000e-01	4.000000e-01	-1.46249e-04	
132	2.000000e-01	4.000000e-01	-1.48391e-04	
133	2.200000e-01	4.000000e-01	-1.50231e-04	
134	2.400000e-01	4.000000e-01	-1.51884e-04	
135	2.600000e-01	4.000000e-01	-1.53416e-04	
136	2.800000e-01	4.000000e-01	-1.54862e-04	
137	3.000000e-01	4.000000e-01	-1.56249e-04	
138	3.200000e-01	4.000000e-01	-1.57589e-04	
139	3.400000e-01	4.000000e-01	-1.58895e-04	
140	3.600000e-01	4.000000e-01	-1.60173e-04	
141	3.800000e-01	4.000000e-01	-1.61429e-04	
142	4.000000e-01	4.000000e-01	-1.62668e-04	
143	4.200000e-01	4.000000e-01	-1.63892e-04	
144	4.400000e-01	4.000000e-01	-1.65103e-04	
145	4.600000e-01	4.000000e-01	-1.66305e-04	
146	4.800000e-01	4.000000e-01	-1.67498e-04	
147	5.000000e-01	4.000000e-01	-1.68684e-04	
148	5.200000e-01	4.000000e-01	-1.69863e-04	
149	5.400000e-01	4.000000e-01	-1.71037e-04	
150	5.600000e-01	4.000000e-01	-1.72207e-04	
151	5.800000e-01	4.000000e-01	-1.73372e-04	
152	6.000000e-01	4.000000e-01	-1.74534e-04	
153	6.200000e-01	4.000000e-01	-1.75693e-04	
154	6.400000e-01	4.000000e-01	-1.76850e-04	
155	6.600000e-01	4.000000e-01	-1.78004e-04	
156	6.800000e-01	4.000000e-01	-1.79157e-04	
157	7.000000e-01	4.000000e-01	-1.80308e-04	
158	7.200000e-01	4.000000e-01	-1.81457e-04	
159	7.400000e-01	4.000000e-01	-1.82605e-04	
160	7.600000e-01	4.000000e-01	-1.83752e-04	
161	7.800000e-01	4.000000e-01	-1.84899e-04	
162	8.000000e-01	4.000000e-01	-1.86044e-04	
163	8.200000e-01	4.000000e-01	-1.87189e-04	
164	8.400000e-01	4.000000e-01	-1.88333e-04	
165	8.600000e-01	4.000000e-01	-1.89477e-04	
166	8.800000e-01	4.000000e-01	-1.90621e-04	
167	9.000000e-01	4.000000e-01	-1.91765e-04	
168	9.200000e-01	4.000000e-01	-1.92908e-04	
169	9.400000e-01	4.000000e-01	-1.94052e-04	
170	9.600000e-01	4.000000e-01	-1.95196e-04	

Index   sweep           v(1)            vds#branch      
--------------------------------------------------------------------------------
171	9.800000e-01	4.000000e-01	-1.96340e-04	
172	1.000000e+00	4.000000e-01	-1.97484e-04	
173	1.020000e+00	4.000000e-01	-1.98629e-04	
174	1.040000e+00	4.000000e-01	-1.99774e-04	
175	1.060000e+00	4.000000e-01	-2.00920e-04	
176	1.080000e+00	4.000000e-01	-2.02067e-04	
177	1.100000e+00	4.000000e-01	-2.03214e-04	
178	1.120000e+00	4.000000e-01	-2.04363e-04	
179	1.140000e+00	4.000000e-01	-2.05513e-04	
180	1.160000e+00	4.000000e-01	-2.06664e-04	
181	1.180000e+00	4.000000e-01	-2.07816e-04	
182	1.200000e+00	4.000000e-01	-2.08971e-04	
183	0.000000e+00	6.000000e-01	1.903301e-08	
184	2.000000e-02	6.000000e-01	-9.82349e-05	
185	4.000000e-02	6.000000e-01	-1.87124e-04	
186	6.000000e-02	6.000000e-01	-2.66935e-04	
187	8.000000e-02	6.000000e-01	-3.37955e-04	
188	1.000000e-01	6.000000e-01	-4.00476e-04	
189	1.200000e-01	6.000000e-01	-4.54805e-04	
190	1.400000e-01	6.000000e-01	-5.01279e-04	
191	1.600000e-01	6.000000e-01	-5.40297e-04	
192	1.800000e-01	6.000000e-01	-5.72355e-04	
193	2.000000e-01	6.000000e-01	-5.98102e-04	
194	2.200000e-01	6.000000e-01	-6.18382e-04	
195	2.400000e-01	6.000000e-01	-6.34210e-04	
196	2.600000e-01	6.000000e-01	-6.46654e-04	
197	2.800000e-01	6.000000e-01	-6.56673e-04	
198	3.000000e-01	6.000000e-01	-6.65008e-04	
199	3.200000e-01	6.000000e-01	-6.72179e-04	
200	3.400000e-01	6.000000e-01	-6.78529e-04	
201	3.600000e-01	6.000000e-01	-6.84284e-04	
202	3.800000e-01	6.000000e-01	-6.89593e-04	
203	4.000000e-01	6.000000e-01	-6.94559e-04	
204	4.200000e-01	6.000000e-01	-6.99256e-04	
205	4.400000e-01	6.000000e-01	-7.03735e-04	
206	4.600000e-01	6.000000e-01	-7.08036e-04	
207	4.800000e-01	6.000000e-01	-7.12189e-04	
208	5.000000e-01	6.000000e-01	-7.16218e-04	
209	5.200000e-01	6.000000e-01	-7.20142e-04	
210	5.400000e-01	6.000000e-01	-7.23975e-04	
211	5.600000e-01	6.000000e-01	-7.27729e-04	
212	5.800000e-01	6.000000e-01	-7.31416e-04	
213	6.000000e-01	6.000000e-01	-7.35042e-04	
214	6.200000e-01	6.000000e-01	-7.38616e-04	
215	6.400000e-01	6.000000e-01	-7.42143e-04	
216	6.600000e-01	6.000000e-01	-7.45629e-04	
217	6.800000e-01	6.000000e-01	-7.49077e-04	
218	7.000000e-01	6.000000e-01	-7.52492e-04	
219	7.200000e-01	6.000000e-01	-7.55877e-04	
220	7.400000e-01	6.000000e-01	-7.59234e-04	
221	7.600000e-01	6.000000e-01	-7.62566e-04	
222	7.800000e-01	6.000000e-01	-7.65875e-04	
223	8.000000e-01	6.000000e-01	-7.69164e-04	
224	8.200000e-01	6.000000e-01	-7.72433e-04	
225	8.400000e-01	6.000000e-01	-7.75684e-04	
226	8.600000e-01	6.000000e-01	-7.78919e-04	
227	8.800000e-01	6.000000e-01	-7.82139e-04	
228	9.000000e-01	6.000000e-01	-7.85345e-04	

Index   sweep           v(1)            vds#branch      
--------------------------------------------------------------------------------
229	9.200000e-01	6.000000e-01	-7.88538e-04	
230	9.400000e-01	6.000000e-01	-7.91718e-04	
231	9.600000e-01	6.000000e-01	-7.94887e-04	
232	9.800000e-01	6.000000e-01	-7.98045e-04	
233	1.000000e+00	6.000000e-01	-8.01194e-04	
234	1.020000e+00	6.000000e-01	-8.04333e-04	
235	1.040000e+00	6.000000e-01	-8.07464e-04	
236	1.060000e+00	6.000000e-01	-8.10586e-04	
237	1.080000e+00	6.000000e-01	-8.13701e-04	
238	1.100000e+00	6.000000e-01	-8.16809e-04	
239	1.120000e+00	6.000000e-01	-8.19910e-04	
240	1.140000e+00	6.000000e-01	-8.23006e-04	
241	1.160000e+00	6.000000e-01	-8.26097e-04	
242	1.180000e+00	6.000000e-01	-8.29182e-04	
243	1.200000e+00	6.000000e-01	-8.32264e-04	
244	0.000000e+00	8.000000e-01	8.004479e-08	
245	2.000000e-02	8.000000e-01	-1.41257e-04	
246	4.000000e-02	8.000000e-01	-2.73585e-04	
247	6.000000e-02	8.000000e-01	-3.97119e-04	
248	8.000000e-02	8.000000e-01	-5.12070e-04	
249	1.000000e-01	8.000000e-01	-6.18646e-04	
250	1.200000e-01	8.000000e-01	-7.17053e-04	
251	1.400000e-01	8.000000e-01	-8.07495e-04	
252	1.600000e-01	8.000000e-01	-8.90180e-04	
253	1.800000e-01	8.000000e-01	-9.65316e-04	
254	2.000000e-01	8.000000e-01	-1.03313e-03	
255	2.200000e-01	8.000000e-01	-1.09384e-03	
256	2.400000e-01	8.000000e-01	-1.14773e-03	
257	2.600000e-01	8.000000e-01	-1.19508e-03	
258	2.800000e-01	8.000000e-01	-1.23627e-03	
259	3.000000e-01	8.000000e-01	-1.27172e-03	
260	3.200000e-01	8.000000e-01	-1.30198e-03	
261	3.400000e-01	8.000000e-01	-1.32768e-03	
262	3.600000e-01	8.000000e-01	-1.34954e-03	
263	3.800000e-01	8.000000e-01	-1.36828e-03	
264	4.000000e-01	8.000000e-01	-1.38456e-03	
265	4.200000e-01	8.000000e-01	-1.39892e-03	
266	4.400000e-01	8.000000e-01	-1.41179e-03	
267	4.600000e-01	8.000000e-01	-1.42349e-03	
268	4.800000e-01	8.000000e-01	-1.43426e-03	
269	5.000000e-01	8.000000e-01	-1.44428e-03	
270	5.200000e-01	8.000000e-01	-1.45368e-03	
271	5.400000e-01	8.000000e-01	-1.46257e-03	
272	5.600000e-01	8.000000e-01	-1.47102e-03	
273	5.800000e-01	8.000000e-01	-1.47910e-03	
274	6.000000e-01	8.000000e-01	-1.48687e-03	
275	6.200000e-01	8.000000e-01	-1.49436e-03	
276	6.400000e-01	8.000000e-01	-1.50161e-03	
277	6.600000e-01	8.000000e-01	-1.50864e-03	
278	6.800000e-01	8.000000e-01	-1.51550e-03	
279	7.000000e-01	8.000000e-01	-1.52218e-03	
280	7.200000e-01	8.000000e-01	-1.52872e-03	
281	7.400000e-01	8.000000e-01	-1.53513e-03	
282	7.600000e-01	8.000000e-01	-1.54142e-03	
283	7.800000e-01	8.000000e-01	-1.54761e-03	
284	8.000000e-01	8.000000e-01	-1.55369e-03	
285	8.200000e-01	8.000000e-01	-1.55969e-03	
286	8.400000e-01	8.000000e-01	-1.56561e-03	

Index   sweep           v(1)            vds#branch      
--------------------------------------------------------------------------------
287	8.600000e-01	8.000000e-01	-1.57145e-03	
288	8.800000e-01	8.000000e-01	-1.57723e-03	
289	9.000000e-01	8.000000e-01	-1.58294e-03	
290	9.200000e-01	8.000000e-01	-1.58860e-03	
291	9.400000e-01	8.000000e-01	-1.59420e-03	
292	9.600000e-01	8.000000e-01	-1.59975e-03	
293	9.800000e-01	8.000000e-01	-1.60526e-03	
294	1.000000e+00	8.000000e-01	-1.61072e-03	
295	1.020000e+00	8.000000e-01	-1.61614e-03	
296	1.040000e+00	8.000000e-01	-1.62153e-03	
297	1.060000e+00	8.000000e-01	-1.62687e-03	
298	1.080000e+00	8.000000e-01	-1.63219e-03	
299	1.100000e+00	8.000000e-01	-1.63747e-03	
300	1.120000e+00	8.000000e-01	-1.64273e-03	
301	1.140000e+00	8.000000e-01	-1.64795e-03	
302	1.160000e+00	8.000000e-01	-1.65315e-03	
303	1.180000e+00	8.000000e-01	-1.65833e-03	
304	1.200000e+00	8.000000e-01	-1.66348e-03	
305	0.000000e+00	1.000000e+00	2.806023e-07	
306	2.000000e-02	1.000000e+00	-1.68417e-04	
307	4.000000e-02	1.000000e+00	-3.28993e-04	
308	6.000000e-02	1.000000e+00	-4.81604e-04	
309	8.000000e-02	1.000000e+00	-6.26406e-04	
310	1.000000e-01	1.000000e+00	-7.63554e-04	
311	1.200000e-01	1.000000e+00	-8.93197e-04	
312	1.400000e-01	1.000000e+00	-1.01549e-03	
313	1.600000e-01	1.000000e+00	-1.13057e-03	
314	1.800000e-01	1.000000e+00	-1.23859e-03	
315	2.000000e-01	1.000000e+00	-1.33969e-03	
316	2.200000e-01	1.000000e+00	-1.43403e-03	
317	2.400000e-01	1.000000e+00	-1.52175e-03	
318	2.600000e-01	1.000000e+00	-1.60301e-03	
319	2.800000e-01	1.000000e+00	-1.67797e-03	
320	3.000000e-01	1.000000e+00	-1.74680e-03	
321	3.200000e-01	1.000000e+00	-1.80968e-03	
322	3.400000e-01	1.000000e+00	-1.86683e-03	
323	3.600000e-01	1.000000e+00	-1.91847e-03	
324	3.800000e-01	1.000000e+00	-1.96488e-03	
325	4.000000e-01	1.000000e+00	-2.00638e-03	
326	4.200000e-01	1.000000e+00	-2.04336e-03	
327	4.400000e-01	1.000000e+00	-2.07623e-03	
328	4.600000e-01	1.000000e+00	-2.10548e-03	
329	4.800000e-01	1.000000e+00	-2.13161e-03	
330	5.000000e-01	1.000000e+00	-2.15509e-03	
331	5.200000e-01	1.000000e+00	-2.17637e-03	
332	5.400000e-01	1.000000e+00	-2.19581e-03	
333	5.600000e-01	1.000000e+00	-2.21371e-03	
334	5.800000e-01	1.000000e+00	-2.23032e-03	
335	6.000000e-01	1.000000e+00	-2.24585e-03	
336	6.200000e-01	1.000000e+00	-2.26044e-03	
337	6.400000e-01	1.000000e+00	-2.27422e-03	
338	6.600000e-01	1.000000e+00	-2.28731e-03	
339	6.800000e-01	1.000000e+00	-2.29980e-03	
340	7.000000e-01	1.000000e+00	-2.31174e-03	
341	7.200000e-01	1.000000e+00	-2.32322e-03	
342	7.400000e-01	1.000000e+00	-2.33428e-03	
343	7.600000e-01	1.000000e+00	-2.34497e-03	
344	7.800000e-01	1.000000e+00	-2.35532e-03	

Index   sweep           v(1)            vds#branch      
--------------------------------------------------------------------------------
345	8.000000e-01	1.000000e+00	-2.36538e-03	
346	8.200000e-01	1.000000e+00	-2.37517e-03	
347	8.400000e-01	1.000000e+00	-2.38472e-03	
348	8.600000e-01	1.000000e+00	-2.39404e-03	
349	8.800000e-01	1.000000e+00	-2.40317e-03	
350	9.000000e-01	1.000000e+00	-2.41211e-03	
351	9.200000e-01	1.000000e+00	-2.42089e-03	
352	9.400000e-01	1.000000e+00	-2.42952e-03	
353	9.600000e-01	1.000000e+00	-2.43800e-03	
354	9.800000e-01	1.000000e+00	-2.44635e-03	
355	1.000000e+00	1.000000e+00	-2.45458e-03	
356	1.020000e+00	1.000000e+00	-2.46271e-03	
357	1.040000e+00	1.000000e+00	-2.47072e-03	
358	1.060000e+00	1.000000e+00	-2.47864e-03	
359	1.080000e+00	1.000000e+00	-2.48647e-03	
360	1.100000e+00	1.000000e+00	-2.49422e-03	
361	1.120000e+00	1.000000e+00	-2.50189e-03	
362	1.140000e+00	1.000000e+00	-2.50948e-03	
363	1.160000e+00	1.000000e+00	-2.51700e-03	
364	1.180000e+00	1.000000e+00	-2.52446e-03	
365	1.200000e+00	1.000000e+00	-2.53185e-03	
366	0.000000e+00	1.200000e+00	8.841239e-07	
367	2.000000e-02	1.200000e+00	-1.84473e-04	
368	4.000000e-02	1.200000e+00	-3.62663e-04	
369	6.000000e-02	1.200000e+00	-5.33799e-04	
370	8.000000e-02	1.200000e+00	-6.97997e-04	
371	1.000000e-01	1.200000e+00	-8.55371e-04	
372	1.200000e-01	1.200000e+00	-1.00603e-03	
373	1.400000e-01	1.200000e+00	-1.15009e-03	
374	1.600000e-01	1.200000e+00	-1.28766e-03	
375	1.800000e-01	1.200000e+00	-1.41884e-03	
376	2.000000e-01	1.200000e+00	-1.54375e-03	
377	2.200000e-01	1.200000e+00	-1.66249e-03	
378	2.400000e-01	1.200000e+00	-1.77516e-03	
379	2.600000e-01	1.200000e+00	-1.88188e-03	
380	2.800000e-01	1.200000e+00	-1.98274e-03	
381	3.000000e-01	1.200000e+00	-2.07787e-03	
382	3.200000e-01	1.200000e+00	-2.16737e-03	
383	3.400000e-01	1.200000e+00	-2.25136e-03	
384	3.600000e-01	1.200000e+00	-2.32997e-03	
385	3.800000e-01	1.200000e+00	-2.40331e-03	
386	4.000000e-01	1.200000e+00	-2.47153e-03	
387	4.200000e-01	1.200000e+00	-2.53478e-03	
388	4.400000e-01	1.200000e+00	-2.59323e-03	
389	4.600000e-01	1.200000e+00	-2.64707e-03	
390	4.800000e-01	1.200000e+00	-2.69653e-03	
391	5.000000e-01	1.200000e+00	-2.74184e-03	
392	5.200000e-01	1.200000e+00	-2.78330e-03	
393	5.400000e-01	1.200000e+00	-2.82122e-03	
394	5.600000e-01	1.200000e+00	-2.85594e-03	
395	5.800000e-01	1.200000e+00	-2.88781e-03	
396	6.000000e-01	1.200000e+00	-2.91718e-03	
397	6.200000e-01	1.200000e+00	-2.94436e-03	
398	6.400000e-01	1.200000e+00	-2.96964e-03	
399	6.600000e-01	1.200000e+00	-2.99325e-03	
400	6.800000e-01	1.200000e+00	-3.01541e-03	
401	7.000000e-01	1.200000e+00	-3.03627e-03	
402	7.200000e-01	1.200000e+00	-3.05600e-03	

Index   sweep           v(1)            vds#branch      
--------------------------------------------------------------------------------
403	7.400000e-01	1.200000e+00	-3.07471e-03	
404	7.600000e-01	1.200000e+00	-3.09251e-03	
405	7.800000e-01	1.200000e+00	-3.10950e-03	
406	8.000000e-01	1.200000e+00	-3.12576e-03	
407	8.200000e-01	1.200000e+00	-3.14137e-03	
408	8.400000e-01	1.200000e+00	-3.15639e-03	
409	8.600000e-01	1.200000e+00	-3.17087e-03	
410	8.800000e-01	1.200000e+00	-3.18488e-03	
411	9.000000e-01	1.200000e+00	-3.19845e-03	
412	9.200000e-01	1.200000e+00	-3.21162e-03	
413	9.400000e-01	1.200000e+00	-3.22442e-03	
414	9.600000e-01	1.200000e+00	-3.23690e-03	
415	9.800000e-01	1.200000e+00	-3.24908e-03	
416	1.000000e+00	1.200000e+00	-3.26097e-03	
417	1.020000e+00	1.200000e+00	-3.27261e-03	
418	1.040000e+00	1.200000e+00	-3.28401e-03	
419	1.060000e+00	1.200000e+00	-3.29520e-03	
420	1.080000e+00	1.200000e+00	-3.30618e-03	
421	1.100000e+00	1.200000e+00	-3.31697e-03	
422	1.120000e+00	1.200000e+00	-3.32759e-03	
423	1.140000e+00	1.200000e+00	-3.33805e-03	
424	1.160000e+00	1.200000e+00	-3.34835e-03	
425	1.180000e+00	1.200000e+00	-3.35851e-03	
426	1.200000e+00	1.200000e+00	-3.36854e-03	

CPU time since last call: 0.260 seconds.

Total CPU time: 0.260 seconds.

Current dynamic memory usage = 303104,
Dynamic memory limit = -23998888.

