
Circuit: ** NMOSFET: Benchmarking Implementation of BSIM4 by Jane Xi 05/09/2003.

Doing analysis at TEMP = 373.150000 and TNOM = 300.150000
Warning: toxe, toxp and dtox all given and toxe != toxp + dtox; dtox ignored.
    ** NMOSFET: Benchmarking Implementation of BSIM4 by Jane Xi 05/09/2003.
    DC transfer characteristic  Sat Aug 27 16:00:40  2005
--------------------------------------------------------------------------------
Index   v-sweep         v(2)            vds#branch      
--------------------------------------------------------------------------------
0	-6.000000e-01	1.000000e-01	-9.985393e-10	
1	-5.800000e-01	1.000000e-01	-8.761486e-10	
2	-5.600000e-01	1.000000e-01	-7.676139e-10	
3	-5.400000e-01	1.000000e-01	-6.715221e-10	
4	-5.200000e-01	1.000000e-01	-5.866252e-10	
5	-5.000000e-01	1.000000e-01	-5.118396e-10	
6	-4.800000e-01	1.000000e-01	-4.462538e-10	
7	-4.600000e-01	1.000000e-01	-3.891500e-10	
8	-4.400000e-01	1.000000e-01	-3.400461e-10	
9	-4.200000e-01	1.000000e-01	-2.987703e-10	
10	-4.000000e-01	1.000000e-01	-2.655867e-10	
11	-3.800000e-01	1.000000e-01	-2.414027e-10	
12	-3.600000e-01	1.000000e-01	-2.281055e-10	
13	-3.400000e-01	1.000000e-01	-2.291053e-10	
14	-3.200000e-01	1.000000e-01	-2.502070e-10	
15	-3.000000e-01	1.000000e-01	-3.010066e-10	
16	-2.800000e-01	1.000000e-01	-3.971222e-10	
17	-2.600000e-01	1.000000e-01	-5.637519e-10	
18	-2.400000e-01	1.000000e-01	-8.413378e-10	
19	-2.200000e-01	1.000000e-01	-1.294565e-09	
20	-2.000000e-01	1.000000e-01	-2.026624e-09	
21	-1.800000e-01	1.000000e-01	-3.201755e-09	
22	-1.600000e-01	1.000000e-01	-5.080750e-09	
23	-1.400000e-01	1.000000e-01	-8.076633e-09	
24	-1.200000e-01	1.000000e-01	-1.284151e-08	
25	-1.000000e-01	1.000000e-01	-2.040120e-08	
26	-8.000000e-02	1.000000e-01	-3.236218e-08	
27	-6.000000e-02	1.000000e-01	-5.122686e-08	
28	-4.000000e-02	1.000000e-01	-8.086820e-08	
29	-2.000000e-02	1.000000e-01	-1.272348e-07	
30	1.734723e-16	1.000000e-01	-1.993823e-07	
31	2.000000e-02	1.000000e-01	-3.109562e-07	
32	4.000000e-02	1.000000e-01	-4.822855e-07	
33	6.000000e-02	1.000000e-01	-7.432834e-07	
34	8.000000e-02	1.000000e-01	-1.137404e-06	
35	1.000000e-01	1.000000e-01	-1.726966e-06	
36	1.200000e-01	1.000000e-01	-2.600254e-06	
37	1.400000e-01	1.000000e-01	-3.880913e-06	
38	1.600000e-01	1.000000e-01	-5.740190e-06	
39	1.800000e-01	1.000000e-01	-8.412331e-06	
40	2.000000e-01	1.000000e-01	-1.221255e-05	
41	2.200000e-01	1.000000e-01	-1.755509e-05	
42	2.400000e-01	1.000000e-01	-2.496593e-05	
43	2.600000e-01	1.000000e-01	-3.508127e-05	
44	2.800000e-01	1.000000e-01	-4.862085e-05	
45	3.000000e-01	1.000000e-01	-6.632670e-05	
46	3.200000e-01	1.000000e-01	-8.886574e-05	
47	3.400000e-01	1.000000e-01	-1.167090e-04	
48	3.600000e-01	1.000000e-01	-1.500083e-04	
49	3.800000e-01	1.000000e-01	-1.885282e-04	
50	4.000000e-01	1.000000e-01	-2.316996e-04	
51	4.200000e-01	1.000000e-01	-2.787071e-04	
52	4.400000e-01	1.000000e-01	-3.286221e-04	
53	4.600000e-01	1.000000e-01	-3.805214e-04	
54	4.800000e-01	1.000000e-01	-4.335654e-04	

Index   v-sweep         v(2)            vds#branch      
--------------------------------------------------------------------------------
55	5.000000e-01	1.000000e-01	-4.870368e-04	
56	5.200000e-01	1.000000e-01	-5.403504e-04	
57	5.400000e-01	1.000000e-01	-5.930459e-04	
58	5.600000e-01	1.000000e-01	-6.447734e-04	
59	5.800000e-01	1.000000e-01	-6.952748e-04	
60	6.000000e-01	1.000000e-01	-7.443671e-04	
61	6.200000e-01	1.000000e-01	-7.919263e-04	
62	6.400000e-01	1.000000e-01	-8.378742e-04	
63	6.600000e-01	1.000000e-01	-8.821679e-04	
64	6.800000e-01	1.000000e-01	-9.247905e-04	
65	7.000000e-01	1.000000e-01	-9.657451e-04	
66	7.200000e-01	1.000000e-01	-1.005049e-03	
67	7.400000e-01	1.000000e-01	-1.042729e-03	
68	7.600000e-01	1.000000e-01	-1.078822e-03	
69	7.800000e-01	1.000000e-01	-1.113366e-03	
70	8.000000e-01	1.000000e-01	-1.146405e-03	
71	8.200000e-01	1.000000e-01	-1.177986e-03	
72	8.400000e-01	1.000000e-01	-1.208154e-03	
73	8.600000e-01	1.000000e-01	-1.236957e-03	
74	8.800000e-01	1.000000e-01	-1.264442e-03	
75	9.000000e-01	1.000000e-01	-1.290655e-03	
76	9.200000e-01	1.000000e-01	-1.315644e-03	
77	9.400000e-01	1.000000e-01	-1.339452e-03	
78	9.600000e-01	1.000000e-01	-1.362124e-03	
79	9.800000e-01	1.000000e-01	-1.383703e-03	
80	1.000000e+00	1.000000e-01	-1.404231e-03	
81	1.020000e+00	1.000000e-01	-1.423747e-03	
82	1.040000e+00	1.000000e-01	-1.442291e-03	
83	1.060000e+00	1.000000e-01	-1.459901e-03	
84	1.080000e+00	1.000000e-01	-1.476613e-03	
85	1.100000e+00	1.000000e-01	-1.492463e-03	
86	1.120000e+00	1.000000e-01	-1.507484e-03	
87	1.140000e+00	1.000000e-01	-1.521709e-03	
88	1.160000e+00	1.000000e-01	-1.535169e-03	
89	1.180000e+00	1.000000e-01	-1.547895e-03	
90	1.200000e+00	1.000000e-01	-1.559916e-03	
91	-6.000000e-01	1.000000e-01	-1.009343e-09	
92	-5.800000e-01	1.000000e-01	-8.868658e-10	
93	-5.600000e-01	1.000000e-01	-7.781919e-10	
94	-5.400000e-01	1.000000e-01	-6.818775e-10	
95	-5.200000e-01	1.000000e-01	-5.966246e-10	
96	-5.000000e-01	1.000000e-01	-5.212696e-10	
97	-4.800000e-01	1.000000e-01	-4.547735e-10	
98	-4.600000e-01	1.000000e-01	-3.962141e-10	
99	-4.400000e-01	1.000000e-01	-3.447832e-10	
100	-4.200000e-01	1.000000e-01	-2.997872e-10	
101	-4.000000e-01	1.000000e-01	-2.606572e-10	
102	-3.800000e-01	1.000000e-01	-2.269698e-10	
103	-3.600000e-01	1.000000e-01	-1.984866e-10	
104	-3.400000e-01	1.000000e-01	-1.752248e-10	
105	-3.200000e-01	1.000000e-01	-1.575746e-10	
106	-3.000000e-01	1.000000e-01	-1.464960e-10	
107	-2.800000e-01	1.000000e-01	-1.438403e-10	
108	-2.600000e-01	1.000000e-01	-1.528778e-10	
109	-2.400000e-01	1.000000e-01	-1.791555e-10	
110	-2.200000e-01	1.000000e-01	-2.318914e-10	
111	-2.000000e-01	1.000000e-01	-3.262360e-10	
112	-1.800000e-01	1.000000e-01	-4.869331e-10	

Index   v-sweep         v(2)            vds#branch      
--------------------------------------------------------------------------------
113	-1.600000e-01	1.000000e-01	-7.542343e-10	
114	-1.400000e-01	1.000000e-01	-1.193435e-09	
115	-1.200000e-01	1.000000e-01	-1.910209e-09	
116	-1.000000e-01	1.000000e-01	-3.075175e-09	
117	-8.000000e-02	1.000000e-01	-4.963116e-09	
118	-6.000000e-02	1.000000e-01	-8.015244e-09	
119	-4.000000e-02	1.000000e-01	-1.293745e-08	
120	-2.000000e-02	1.000000e-01	-2.085409e-08	
121	1.734723e-16	1.000000e-01	-3.354649e-08	
122	2.000000e-02	1.000000e-01	-5.381845e-08	
123	4.000000e-02	1.000000e-01	-8.604864e-08	
124	6.000000e-02	1.000000e-01	-1.370120e-07	
125	8.000000e-02	1.000000e-01	-2.170782e-07	
126	1.000000e-01	1.000000e-01	-3.419248e-07	
127	1.200000e-01	1.000000e-01	-5.349338e-07	
128	1.400000e-01	1.000000e-01	-8.304765e-07	
129	1.600000e-01	1.000000e-01	-1.278340e-06	
130	1.800000e-01	1.000000e-01	-1.949622e-06	
131	2.000000e-01	1.000000e-01	-2.944524e-06	
132	2.200000e-01	1.000000e-01	-4.402564e-06	
133	2.400000e-01	1.000000e-01	-6.515630e-06	
134	2.600000e-01	1.000000e-01	-9.543756e-06	
135	2.800000e-01	1.000000e-01	-1.383205e-05	
136	3.000000e-01	1.000000e-01	-1.982470e-05	
137	3.200000e-01	1.000000e-01	-2.806862e-05	
138	3.400000e-01	1.000000e-01	-3.919674e-05	
139	3.600000e-01	1.000000e-01	-5.387590e-05	
140	3.800000e-01	1.000000e-01	-7.271878e-05	
141	4.000000e-01	1.000000e-01	-9.618775e-05	
142	4.200000e-01	1.000000e-01	-1.244821e-04	
143	4.400000e-01	1.000000e-01	-1.574707e-04	
144	4.600000e-01	1.000000e-01	-1.947000e-04	
145	4.800000e-01	1.000000e-01	-2.354767e-04	
146	5.000000e-01	1.000000e-01	-2.789885e-04	
147	5.200000e-01	1.000000e-01	-3.244149e-04	
148	5.400000e-01	1.000000e-01	-3.710025e-04	
149	5.600000e-01	1.000000e-01	-4.181044e-04	
150	5.800000e-01	1.000000e-01	-4.651901e-04	
151	6.000000e-01	1.000000e-01	-5.118413e-04	
152	6.200000e-01	1.000000e-01	-5.577385e-04	
153	6.400000e-01	1.000000e-01	-6.026450e-04	
154	6.600000e-01	1.000000e-01	-6.463915e-04	
155	6.800000e-01	1.000000e-01	-6.888619e-04	
156	7.000000e-01	1.000000e-01	-7.299814e-04	
157	7.200000e-01	1.000000e-01	-7.697064e-04	
158	7.400000e-01	1.000000e-01	-8.080174e-04	
159	7.600000e-01	1.000000e-01	-8.449124e-04	
160	7.800000e-01	1.000000e-01	-8.804022e-04	
161	8.000000e-01	1.000000e-01	-9.145072e-04	
162	8.200000e-01	1.000000e-01	-9.472544e-04	
163	8.400000e-01	1.000000e-01	-9.786756e-04	
164	8.600000e-01	1.000000e-01	-1.008806e-03	
165	8.800000e-01	1.000000e-01	-1.037681e-03	
166	9.000000e-01	1.000000e-01	-1.065341e-03	
167	9.200000e-01	1.000000e-01	-1.091823e-03	
168	9.400000e-01	1.000000e-01	-1.117167e-03	
169	9.600000e-01	1.000000e-01	-1.141410e-03	
170	9.800000e-01	1.000000e-01	-1.164592e-03	

Index   v-sweep         v(2)            vds#branch      
--------------------------------------------------------------------------------
171	1.000000e+00	1.000000e-01	-1.186748e-03	
172	1.020000e+00	1.000000e-01	-1.207917e-03	
173	1.040000e+00	1.000000e-01	-1.228133e-03	
174	1.060000e+00	1.000000e-01	-1.247431e-03	
175	1.080000e+00	1.000000e-01	-1.265845e-03	
176	1.100000e+00	1.000000e-01	-1.283408e-03	
177	1.120000e+00	1.000000e-01	-1.300150e-03	
178	1.140000e+00	1.000000e-01	-1.316104e-03	
179	1.160000e+00	1.000000e-01	-1.331297e-03	
180	1.180000e+00	1.000000e-01	-1.345758e-03	
181	1.200000e+00	1.000000e-01	-1.359515e-03	
182	-6.000000e-01	1.000000e-01	-1.058651e-09	
183	-5.800000e-01	1.000000e-01	-9.361651e-10	
184	-5.600000e-01	1.000000e-01	-8.274771e-10	
185	-5.400000e-01	1.000000e-01	-7.311397e-10	
186	-5.200000e-01	1.000000e-01	-6.458495e-10	
187	-5.000000e-01	1.000000e-01	-5.704339e-10	
188	-4.800000e-01	1.000000e-01	-5.038393e-10	
189	-4.600000e-01	1.000000e-01	-4.451199e-10	
190	-4.400000e-01	1.000000e-01	-3.934288e-10	
191	-4.200000e-01	1.000000e-01	-3.480102e-10	
192	-4.000000e-01	1.000000e-01	-3.081936e-10	
193	-3.800000e-01	1.000000e-01	-2.733906e-10	
194	-3.600000e-01	1.000000e-01	-2.430952e-10	
195	-3.400000e-01	1.000000e-01	-2.168898e-10	
196	-3.200000e-01	1.000000e-01	-1.944589e-10	
197	-3.000000e-01	1.000000e-01	-1.756167e-10	
198	-2.800000e-01	1.000000e-01	-1.603558e-10	
199	-2.600000e-01	1.000000e-01	-1.489312e-10	
200	-2.400000e-01	1.000000e-01	-1.420009e-10	
201	-2.200000e-01	1.000000e-01	-1.408607e-10	
202	-2.000000e-01	1.000000e-01	-1.478317e-10	
203	-1.800000e-01	1.000000e-01	-1.668990e-10	
204	-1.600000e-01	1.000000e-01	-2.047625e-10	
205	-1.400000e-01	1.000000e-01	-2.725596e-10	
206	-1.200000e-01	1.000000e-01	-3.886881e-10	
207	-1.000000e-01	1.000000e-01	-5.834204e-10	
208	-8.000000e-02	1.000000e-01	-9.064302e-10	
209	-6.000000e-02	1.000000e-01	-1.439038e-09	
210	-4.000000e-02	1.000000e-01	-2.314067e-09	
211	-2.000000e-02	1.000000e-01	-3.747907e-09	
212	1.734723e-16	1.000000e-01	-6.092021e-09	
213	2.000000e-02	1.000000e-01	-9.915159e-09	
214	4.000000e-02	1.000000e-01	-1.613353e-08	
215	6.000000e-02	1.000000e-01	-2.621486e-08	
216	8.000000e-02	1.000000e-01	-4.249443e-08	
217	1.000000e-01	1.000000e-01	-6.865741e-08	
218	1.200000e-01	1.000000e-01	-1.104622e-07	
219	1.400000e-01	1.000000e-01	-1.768036e-07	
220	1.600000e-01	1.000000e-01	-2.812407e-07	
221	1.800000e-01	1.000000e-01	-4.441414e-07	
222	2.000000e-01	1.000000e-01	-6.956238e-07	
223	2.200000e-01	1.000000e-01	-1.079515e-06	
224	2.400000e-01	1.000000e-01	-1.658608e-06	
225	2.600000e-01	1.000000e-01	-2.521610e-06	
226	2.800000e-01	1.000000e-01	-3.792236e-06	
227	3.000000e-01	1.000000e-01	-5.640918e-06	
228	3.200000e-01	1.000000e-01	-8.299070e-06	

Index   v-sweep         v(2)            vds#branch      
--------------------------------------------------------------------------------
229	3.400000e-01	1.000000e-01	-1.207465e-05	
230	3.600000e-01	1.000000e-01	-1.736360e-05	
231	3.800000e-01	1.000000e-01	-2.465103e-05	
232	4.000000e-01	1.000000e-01	-3.450053e-05	
233	4.200000e-01	1.000000e-01	-4.750993e-05	
234	4.400000e-01	1.000000e-01	-6.423656e-05	
235	4.600000e-01	1.000000e-01	-8.509812e-05	
236	4.800000e-01	1.000000e-01	-1.102737e-04	
237	5.000000e-01	1.000000e-01	-1.396435e-04	
238	5.200000e-01	1.000000e-01	-1.727976e-04	
239	5.400000e-01	1.000000e-01	-2.091147e-04	
240	5.600000e-01	1.000000e-01	-2.478713e-04	
241	5.800000e-01	1.000000e-01	-2.883407e-04	
242	6.000000e-01	1.000000e-01	-3.298593e-04	
243	6.200000e-01	1.000000e-01	-3.718585e-04	
244	6.400000e-01	1.000000e-01	-4.138739e-04	
245	6.600000e-01	1.000000e-01	-4.555396e-04	
246	6.800000e-01	1.000000e-01	-4.965765e-04	
247	7.000000e-01	1.000000e-01	-5.367775e-04	
248	7.200000e-01	1.000000e-01	-5.759943e-04	
249	7.400000e-01	1.000000e-01	-6.141246e-04	
250	7.600000e-01	1.000000e-01	-6.511018e-04	
251	7.800000e-01	1.000000e-01	-6.868865e-04	
252	8.000000e-01	1.000000e-01	-7.214598e-04	
253	8.200000e-01	1.000000e-01	-7.548179e-04	
254	8.400000e-01	1.000000e-01	-7.869683e-04	
255	8.600000e-01	1.000000e-01	-8.179268e-04	
256	8.800000e-01	1.000000e-01	-8.477149e-04	
257	9.000000e-01	1.000000e-01	-8.763582e-04	
258	9.200000e-01	1.000000e-01	-9.038851e-04	
259	9.400000e-01	1.000000e-01	-9.303259e-04	
260	9.600000e-01	1.000000e-01	-9.557120e-04	
261	9.800000e-01	1.000000e-01	-9.800754e-04	
262	1.000000e+00	1.000000e-01	-1.003448e-03	
263	1.020000e+00	1.000000e-01	-1.025862e-03	
264	1.040000e+00	1.000000e-01	-1.047350e-03	
265	1.060000e+00	1.000000e-01	-1.067941e-03	
266	1.080000e+00	1.000000e-01	-1.087668e-03	
267	1.100000e+00	1.000000e-01	-1.106558e-03	
268	1.120000e+00	1.000000e-01	-1.124643e-03	
269	1.140000e+00	1.000000e-01	-1.141949e-03	
270	1.160000e+00	1.000000e-01	-1.158505e-03	
271	1.180000e+00	1.000000e-01	-1.174336e-03	
272	1.200000e+00	1.000000e-01	-1.189468e-03	
273	-6.000000e-01	1.000000e-01	-1.251378e-09	
274	-5.800000e-01	1.000000e-01	-1.128891e-09	
275	-5.600000e-01	1.000000e-01	-1.020201e-09	
276	-5.400000e-01	1.000000e-01	-9.238609e-10	
277	-5.200000e-01	1.000000e-01	-8.385659e-10	
278	-5.000000e-01	1.000000e-01	-7.631424e-10	
279	-4.800000e-01	1.000000e-01	-6.965347e-10	
280	-4.600000e-01	1.000000e-01	-6.377940e-10	
281	-4.400000e-01	1.000000e-01	-5.860677e-10	
282	-4.200000e-01	1.000000e-01	-5.405914e-10	
283	-4.000000e-01	1.000000e-01	-5.006798e-10	
284	-3.800000e-01	1.000000e-01	-4.657207e-10	
285	-3.600000e-01	1.000000e-01	-4.351688e-10	
286	-3.400000e-01	1.000000e-01	-4.085417e-10	

Index   v-sweep         v(2)            vds#branch      
--------------------------------------------------------------------------------
287	-3.200000e-01	1.000000e-01	-3.854177e-10	
288	-3.000000e-01	1.000000e-01	-3.654364e-10	
289	-2.800000e-01	1.000000e-01	-3.483037e-10	
290	-2.600000e-01	1.000000e-01	-3.338035e-10	
291	-2.400000e-01	1.000000e-01	-3.218203e-10	
292	-2.200000e-01	1.000000e-01	-3.123801e-10	
293	-2.000000e-01	1.000000e-01	-3.057197e-10	
294	-1.800000e-01	1.000000e-01	-3.024053e-10	
295	-1.600000e-01	1.000000e-01	-3.035304e-10	
296	-1.400000e-01	1.000000e-01	-3.110467e-10	
297	-1.200000e-01	1.000000e-01	-3.283124e-10	
298	-1.000000e-01	1.000000e-01	-3.610024e-10	
299	-8.000000e-02	1.000000e-01	-4.186148e-10	
300	-6.000000e-02	1.000000e-01	-5.169583e-10	
301	-4.000000e-02	1.000000e-01	-6.822548e-10	
302	-2.000000e-02	1.000000e-01	-9.578882e-10	
303	1.734723e-16	1.000000e-01	-1.415477e-09	
304	2.000000e-02	1.000000e-01	-2.172975e-09	
305	4.000000e-02	1.000000e-01	-3.424140e-09	
306	6.000000e-02	1.000000e-01	-5.486238e-09	
307	8.000000e-02	1.000000e-01	-8.876745e-09	
308	1.000000e-01	1.000000e-01	-1.443562e-08	
309	1.200000e-01	1.000000e-01	-2.351814e-08	
310	1.400000e-01	1.000000e-01	-3.829514e-08	
311	1.600000e-01	1.000000e-01	-6.221287e-08	
312	1.800000e-01	1.000000e-01	-1.006851e-07	
313	2.000000e-01	1.000000e-01	-1.621110e-07	
314	2.200000e-01	1.000000e-01	-2.593371e-07	
315	2.400000e-01	1.000000e-01	-4.117049e-07	
316	2.600000e-01	1.000000e-01	-6.478510e-07	
317	2.800000e-01	1.000000e-01	-1.009457e-06	
318	3.000000e-01	1.000000e-01	-1.556213e-06	
319	3.200000e-01	1.000000e-01	-2.372353e-06	
320	3.400000e-01	1.000000e-01	-3.575226e-06	
321	3.600000e-01	1.000000e-01	-5.325696e-06	
322	3.800000e-01	1.000000e-01	-7.840297e-06	
323	4.000000e-01	1.000000e-01	-1.140635e-05	
324	4.200000e-01	1.000000e-01	-1.639237e-05	
325	4.400000e-01	1.000000e-01	-2.324952e-05	
326	4.600000e-01	1.000000e-01	-3.249497e-05	
327	4.800000e-01	1.000000e-01	-4.466880e-05	
328	5.000000e-01	1.000000e-01	-6.026147e-05	
329	5.200000e-01	1.000000e-01	-7.962115e-05	
330	5.400000e-01	1.000000e-01	-1.028667e-04	
331	5.600000e-01	1.000000e-01	-1.298423e-04	
332	5.800000e-01	1.000000e-01	-1.601399e-04	
333	6.000000e-01	1.000000e-01	-1.931786e-04	
334	6.200000e-01	1.000000e-01	-2.283056e-04	
335	6.400000e-01	1.000000e-01	-2.648799e-04	
336	6.600000e-01	1.000000e-01	-3.023250e-04	
337	6.800000e-01	1.000000e-01	-3.401525e-04	
338	7.000000e-01	1.000000e-01	-3.779666e-04	
339	7.200000e-01	1.000000e-01	-4.154572e-04	
340	7.400000e-01	1.000000e-01	-4.523887e-04	
341	7.600000e-01	1.000000e-01	-4.885869e-04	
342	7.800000e-01	1.000000e-01	-5.239272e-04	
343	8.000000e-01	1.000000e-01	-5.583237e-04	
344	8.200000e-01	1.000000e-01	-5.917203e-04	

Index   v-sweep         v(2)            vds#branch      
--------------------------------------------------------------------------------
345	8.400000e-01	1.000000e-01	-6.240838e-04	
346	8.600000e-01	1.000000e-01	-6.553981e-04	
347	8.800000e-01	1.000000e-01	-6.856596e-04	
348	9.000000e-01	1.000000e-01	-7.148742e-04	
349	9.200000e-01	1.000000e-01	-7.430549e-04	
350	9.400000e-01	1.000000e-01	-7.702191e-04	
351	9.600000e-01	1.000000e-01	-7.963882e-04	
352	9.800000e-01	1.000000e-01	-8.215855e-04	
353	1.000000e+00	1.000000e-01	-8.458364e-04	
354	1.020000e+00	1.000000e-01	-8.691668e-04	
355	1.040000e+00	1.000000e-01	-8.916034e-04	
356	1.060000e+00	1.000000e-01	-9.131730e-04	
357	1.080000e+00	1.000000e-01	-9.339024e-04	
358	1.100000e+00	1.000000e-01	-9.538181e-04	
359	1.120000e+00	1.000000e-01	-9.729462e-04	
360	1.140000e+00	1.000000e-01	-9.913124e-04	
361	1.160000e+00	1.000000e-01	-1.008942e-03	
362	1.180000e+00	1.000000e-01	-1.025858e-03	
363	1.200000e+00	1.000000e-01	-1.042086e-03	
364	-6.000000e-01	1.000000e-01	-1.910750e-09	
365	-5.800000e-01	1.000000e-01	-1.788263e-09	
366	-5.600000e-01	1.000000e-01	-1.679573e-09	
367	-5.400000e-01	1.000000e-01	-1.583232e-09	
368	-5.200000e-01	1.000000e-01	-1.497936e-09	
369	-5.000000e-01	1.000000e-01	-1.422511e-09	
370	-4.800000e-01	1.000000e-01	-1.355902e-09	
371	-4.600000e-01	1.000000e-01	-1.297158e-09	
372	-4.400000e-01	1.000000e-01	-1.245426e-09	
373	-4.200000e-01	1.000000e-01	-1.199941e-09	
374	-4.000000e-01	1.000000e-01	-1.160014e-09	
375	-3.800000e-01	1.000000e-01	-1.125030e-09	
376	-3.600000e-01	1.000000e-01	-1.094437e-09	
377	-3.400000e-01	1.000000e-01	-1.067741e-09	
378	-3.200000e-01	1.000000e-01	-1.044504e-09	
379	-3.000000e-01	1.000000e-01	-1.024335e-09	
380	-2.800000e-01	1.000000e-01	-1.006890e-09	
381	-2.600000e-01	1.000000e-01	-9.918721e-10	
382	-2.400000e-01	1.000000e-01	-9.790310e-10	
383	-2.200000e-01	1.000000e-01	-9.681682e-10	
384	-2.000000e-01	1.000000e-01	-9.591495e-10	
385	-1.800000e-01	1.000000e-01	-9.519259e-10	
386	-1.600000e-01	1.000000e-01	-9.465722e-10	
387	-1.400000e-01	1.000000e-01	-9.433529e-10	
388	-1.200000e-01	1.000000e-01	-9.428335e-10	
389	-1.000000e-01	1.000000e-01	-9.460693e-10	
390	-8.000000e-02	1.000000e-01	-9.549207e-10	
391	-6.000000e-02	1.000000e-01	-9.725807e-10	
392	-4.000000e-02	1.000000e-01	-1.004455e-09	
393	-2.000000e-02	1.000000e-01	-1.059628e-09	
394	1.734723e-16	1.000000e-01	-1.153300e-09	
395	2.000000e-02	1.000000e-01	-1.310833e-09	
396	4.000000e-02	1.000000e-01	-1.574440e-09	
397	6.000000e-02	1.000000e-01	-2.014239e-09	
398	8.000000e-02	1.000000e-01	-2.746414e-09	
399	1.000000e-01	1.000000e-01	-3.962932e-09	
400	1.200000e-01	1.000000e-01	-5.979882e-09	
401	1.400000e-01	1.000000e-01	-9.315472e-09	
402	1.600000e-01	1.000000e-01	-1.481467e-08	

Index   v-sweep         v(2)            vds#branch      
--------------------------------------------------------------------------------
403	1.800000e-01	1.000000e-01	-2.384672e-08	
404	2.000000e-01	1.000000e-01	-3.861252e-08	
405	2.200000e-01	1.000000e-01	-6.261580e-08	
406	2.400000e-01	1.000000e-01	-1.013716e-07	
407	2.600000e-01	1.000000e-01	-1.634455e-07	
408	2.800000e-01	1.000000e-01	-2.619371e-07	
409	3.000000e-01	1.000000e-01	-4.165386e-07	
410	3.200000e-01	1.000000e-01	-6.563205e-07	
411	3.400000e-01	1.000000e-01	-1.023441e-06	
412	3.600000e-01	1.000000e-01	-1.577842e-06	
413	3.800000e-01	1.000000e-01	-2.403264e-06	
414	4.000000e-01	1.000000e-01	-3.615859e-06	
415	4.200000e-01	1.000000e-01	-5.374433e-06	
416	4.400000e-01	1.000000e-01	-7.892674e-06	
417	4.600000e-01	1.000000e-01	-1.145146e-05	
418	4.800000e-01	1.000000e-01	-1.640719e-05	
419	5.000000e-01	1.000000e-01	-2.318935e-05	
420	5.200000e-01	1.000000e-01	-3.227915e-05	
421	5.400000e-01	1.000000e-01	-4.416215e-05	
422	5.600000e-01	1.000000e-01	-5.925492e-05	
423	5.800000e-01	1.000000e-01	-7.781854e-05	
424	6.000000e-01	1.000000e-01	-9.988732e-05	
425	6.200000e-01	1.000000e-01	-1.252456e-04	
426	6.400000e-01	1.000000e-01	-1.534679e-04	
427	6.600000e-01	1.000000e-01	-1.840016e-04	
428	6.800000e-01	1.000000e-01	-2.162571e-04	
429	7.000000e-01	1.000000e-01	-2.496738e-04	
430	7.200000e-01	1.000000e-01	-2.837591e-04	
431	7.400000e-01	1.000000e-01	-3.181019e-04	
432	7.600000e-01	1.000000e-01	-3.523728e-04	
433	7.800000e-01	1.000000e-01	-3.863160e-04	
434	8.000000e-01	1.000000e-01	-4.197382e-04	
435	8.200000e-01	1.000000e-01	-4.524977e-04	
436	8.400000e-01	1.000000e-01	-4.844930e-04	
437	8.600000e-01	1.000000e-01	-5.156550e-04	
438	8.800000e-01	1.000000e-01	-5.459385e-04	
439	9.000000e-01	1.000000e-01	-5.753170e-04	
440	9.200000e-01	1.000000e-01	-6.037780e-04	
441	9.400000e-01	1.000000e-01	-6.313192e-04	
442	9.600000e-01	1.000000e-01	-6.579460e-04	
443	9.800000e-01	1.000000e-01	-6.836692e-04	
444	1.000000e+00	1.000000e-01	-7.085040e-04	
445	1.020000e+00	1.000000e-01	-7.324680e-04	
446	1.040000e+00	1.000000e-01	-7.555810e-04	
447	1.060000e+00	1.000000e-01	-7.778642e-04	
448	1.080000e+00	1.000000e-01	-7.993394e-04	
449	1.100000e+00	1.000000e-01	-8.200291e-04	
450	1.120000e+00	1.000000e-01	-8.399557e-04	
451	1.140000e+00	1.000000e-01	-8.591417e-04	
452	1.160000e+00	1.000000e-01	-8.776095e-04	
453	1.180000e+00	1.000000e-01	-8.953811e-04	
454	1.200000e+00	1.000000e-01	-9.124779e-04	

CPU time since last call: 0.044 seconds.

Total CPU time: 0.044 seconds.

Current dynamic memory usage = 131072,
Dynamic memory limit = -491521.

