
Circuit: ** PMOSFET: Benchmarking Implementation of BSIM4 by Jane Xi 05/09/2003.

Doing analysis at TEMP = 218.150000 and TNOM = 300.150000
Warning: toxe, toxp and dtox all given and toxe != toxp + dtox; dtox ignored.
    ** PMOSFET: Benchmarking Implementation of BSIM4 by Jane Xi 05/09/2003.
    DC transfer characteristic  Sat Aug 27 16:00:58  2005
--------------------------------------------------------------------------------
Index   v-sweep         v(2)            vds#branch      
--------------------------------------------------------------------------------
0	6.000000e-01	-1.000000e-01	1.222461e-12	
1	5.800000e-01	-1.000000e-01	1.140470e-12	
2	5.600000e-01	-1.000000e-01	1.082697e-12	
3	5.400000e-01	-1.000000e-01	1.028362e-12	
4	5.200000e-01	-1.000000e-01	9.823897e-13	
5	5.000000e-01	-1.000000e-01	9.435467e-13	
6	4.800000e-01	-1.000000e-01	9.107735e-13	
7	4.600000e-01	-1.000000e-01	8.831631e-13	
8	4.400000e-01	-1.000000e-01	8.599395e-13	
9	4.200000e-01	-1.000000e-01	8.404387e-13	
10	4.000000e-01	-1.000000e-01	8.240938e-13	
11	3.800000e-01	-1.000000e-01	8.104207e-13	
12	3.600000e-01	-1.000000e-01	7.990068e-13	
13	3.400000e-01	-1.000000e-01	7.895009e-13	
14	3.200000e-01	-1.000000e-01	7.816051e-13	
15	3.000000e-01	-1.000000e-01	7.750681e-13	
16	2.800000e-01	-1.000000e-01	7.696816e-13	
17	2.600000e-01	-1.000000e-01	7.652794e-13	
18	2.400000e-01	-1.000000e-01	7.617452e-13	
19	2.200000e-01	-1.000000e-01	7.590351e-13	
20	2.000000e-01	-1.000000e-01	7.572339e-13	
21	1.800000e-01	-1.000000e-01	7.566870e-13	
22	1.600000e-01	-1.000000e-01	7.582992e-13	
23	1.400000e-01	-1.000000e-01	7.642071e-13	
24	1.200000e-01	-1.000000e-01	7.792887e-13	
25	1.000000e-01	-1.000000e-01	8.145447e-13	
26	8.000000e-02	-1.000000e-01	8.946690e-13	
27	6.000000e-02	-1.000000e-01	1.074983e-12	
28	4.000000e-02	-1.000000e-01	1.479296e-12	
29	2.000000e-02	-1.000000e-01	2.384444e-12	
30	-1.734723e-16	-1.000000e-01	4.408802e-12	
31	-2.000000e-02	-1.000000e-01	8.931686e-12	
32	-4.000000e-02	-1.000000e-01	1.902342e-11	
33	-6.000000e-02	-1.000000e-01	4.149798e-11	
34	-8.000000e-02	-1.000000e-01	9.141156e-11	
35	-1.000000e-01	-1.000000e-01	2.018207e-10	
36	-1.200000e-01	-1.000000e-01	4.446357e-10	
37	-1.400000e-01	-1.000000e-01	9.742357e-10	
38	-1.600000e-01	-1.000000e-01	2.115924e-09	
39	-1.800000e-01	-1.000000e-01	4.537750e-09	
40	-2.000000e-01	-1.000000e-01	9.565137e-09	
41	-2.200000e-01	-1.000000e-01	1.971427e-08	
42	-2.400000e-01	-1.000000e-01	3.951606e-08	
43	-2.600000e-01	-1.000000e-01	7.667513e-08	
44	-2.800000e-01	-1.000000e-01	1.436157e-07	
45	-3.000000e-01	-1.000000e-01	2.596405e-07	
46	-3.200000e-01	-1.000000e-01	4.543690e-07	
47	-3.400000e-01	-1.000000e-01	7.737504e-07	
48	-3.600000e-01	-1.000000e-01	1.290627e-06	
49	-3.800000e-01	-1.000000e-01	2.122445e-06	
50	-4.000000e-01	-1.000000e-01	3.458812e-06	
51	-4.200000e-01	-1.000000e-01	5.599319e-06	
52	-4.400000e-01	-1.000000e-01	8.993990e-06	
53	-4.600000e-01	-1.000000e-01	1.426335e-05	
54	-4.800000e-01	-1.000000e-01	2.216118e-05	

Index   v-sweep         v(2)            vds#branch      
--------------------------------------------------------------------------------
55	-5.000000e-01	-1.000000e-01	3.345214e-05	
56	-5.200000e-01	-1.000000e-01	4.872109e-05	
57	-5.400000e-01	-1.000000e-01	6.818344e-05	
58	-5.600000e-01	-1.000000e-01	9.158579e-05	
59	-5.800000e-01	-1.000000e-01	1.182599e-04	
60	-6.000000e-01	-1.000000e-01	1.473157e-04	
61	-6.200000e-01	-1.000000e-01	1.778654e-04	
62	-6.400000e-01	-1.000000e-01	2.091662e-04	
63	-6.600000e-01	-1.000000e-01	2.406588e-04	
64	-6.800000e-01	-1.000000e-01	2.719473e-04	
65	-7.000000e-01	-1.000000e-01	3.027603e-04	
66	-7.200000e-01	-1.000000e-01	3.329161e-04	
67	-7.400000e-01	-1.000000e-01	3.622952e-04	
68	-7.600000e-01	-1.000000e-01	3.908217e-04	
69	-7.800000e-01	-1.000000e-01	4.184495e-04	
70	-8.000000e-01	-1.000000e-01	4.451537e-04	
71	-8.200000e-01	-1.000000e-01	4.709239e-04	
72	-8.400000e-01	-1.000000e-01	4.957604e-04	
73	-8.600000e-01	-1.000000e-01	5.196710e-04	
74	-8.800000e-01	-1.000000e-01	5.426686e-04	
75	-9.000000e-01	-1.000000e-01	5.647701e-04	
76	-9.200000e-01	-1.000000e-01	5.859951e-04	
77	-9.400000e-01	-1.000000e-01	6.063652e-04	
78	-9.600000e-01	-1.000000e-01	6.259031e-04	
79	-9.800000e-01	-1.000000e-01	6.446326e-04	
80	-1.000000e+00	-1.000000e-01	6.625778e-04	
81	-1.020000e+00	-1.000000e-01	6.797632e-04	
82	-1.040000e+00	-1.000000e-01	6.962131e-04	
83	-1.060000e+00	-1.000000e-01	7.119517e-04	
84	-1.080000e+00	-1.000000e-01	7.270032e-04	
85	-1.100000e+00	-1.000000e-01	7.413911e-04	
86	-1.120000e+00	-1.000000e-01	7.551387e-04	
87	-1.140000e+00	-1.000000e-01	7.682685e-04	
88	-1.160000e+00	-1.000000e-01	7.808028e-04	
89	-1.180000e+00	-1.000000e-01	7.927631e-04	
90	-1.200000e+00	-1.000000e-01	8.041703e-04	
91	6.000000e-01	-1.000000e-01	8.028071e-12	
92	5.800000e-01	-1.000000e-01	7.946081e-12	
93	5.600000e-01	-1.000000e-01	7.888308e-12	
94	5.400000e-01	-1.000000e-01	7.833972e-12	
95	5.200000e-01	-1.000000e-01	7.788000e-12	
96	5.000000e-01	-1.000000e-01	7.749157e-12	
97	4.800000e-01	-1.000000e-01	7.716384e-12	
98	4.600000e-01	-1.000000e-01	7.688773e-12	
99	4.400000e-01	-1.000000e-01	7.665550e-12	
100	4.200000e-01	-1.000000e-01	7.646049e-12	
101	4.000000e-01	-1.000000e-01	7.629704e-12	
102	3.800000e-01	-1.000000e-01	7.616030e-12	
103	3.600000e-01	-1.000000e-01	7.604615e-12	
104	3.400000e-01	-1.000000e-01	7.595107e-12	
105	3.200000e-01	-1.000000e-01	7.587206e-12	
106	3.000000e-01	-1.000000e-01	7.580659e-12	
107	2.800000e-01	-1.000000e-01	7.575247e-12	
108	2.600000e-01	-1.000000e-01	7.570790e-12	
109	2.400000e-01	-1.000000e-01	7.567133e-12	
110	2.200000e-01	-1.000000e-01	7.564147e-12	
111	2.000000e-01	-1.000000e-01	7.561730e-12	
112	1.800000e-01	-1.000000e-01	7.559804e-12	

Index   v-sweep         v(2)            vds#branch      
--------------------------------------------------------------------------------
113	1.600000e-01	-1.000000e-01	7.558330e-12	
114	1.400000e-01	-1.000000e-01	7.557333e-12	
115	1.200000e-01	-1.000000e-01	7.556968e-12	
116	1.000000e-01	-1.000000e-01	7.557670e-12	
117	8.000000e-02	-1.000000e-01	7.560514e-12	
118	6.000000e-02	-1.000000e-01	7.568025e-12	
119	4.000000e-02	-1.000000e-01	7.586065e-12	
120	2.000000e-02	-1.000000e-01	7.628156e-12	
121	-1.734723e-16	-1.000000e-01	7.725430e-12	
122	-2.000000e-02	-1.000000e-01	7.949487e-12	
123	-4.000000e-02	-1.000000e-01	8.464844e-12	
124	-6.000000e-02	-1.000000e-01	9.649159e-12	
125	-8.000000e-02	-1.000000e-01	1.236816e-11	
126	-1.000000e-01	-1.000000e-01	1.860236e-11	
127	-1.200000e-01	-1.000000e-01	3.286903e-11	
128	-1.400000e-01	-1.000000e-01	6.542563e-11	
129	-1.600000e-01	-1.000000e-01	1.394115e-10	
130	-1.800000e-01	-1.000000e-01	3.065261e-10	
131	-2.000000e-01	-1.000000e-01	6.806794e-10	
132	-2.200000e-01	-1.000000e-01	1.507899e-09	
133	-2.400000e-01	-1.000000e-01	3.304985e-09	
134	-2.600000e-01	-1.000000e-01	7.117484e-09	
135	-2.800000e-01	-1.000000e-01	1.496083e-08	
136	-3.000000e-01	-1.000000e-01	3.050159e-08	
137	-3.200000e-01	-1.000000e-01	6.000818e-08	
138	-3.400000e-01	-1.000000e-01	1.136128e-07	
139	-3.600000e-01	-1.000000e-01	2.070998e-07	
140	-3.800000e-01	-1.000000e-01	3.648379e-07	
141	-4.000000e-01	-1.000000e-01	6.250083e-07	
142	-4.200000e-01	-1.000000e-01	1.048876e-06	
143	-4.400000e-01	-1.000000e-01	1.736521e-06	
144	-4.600000e-01	-1.000000e-01	2.851865e-06	
145	-4.800000e-01	-1.000000e-01	4.658208e-06	
146	-5.000000e-01	-1.000000e-01	7.558286e-06	
147	-5.200000e-01	-1.000000e-01	1.211754e-05	
148	-5.400000e-01	-1.000000e-01	1.903345e-05	
149	-5.600000e-01	-1.000000e-01	2.902058e-05	
150	-5.800000e-01	-1.000000e-01	4.262559e-05	
151	-6.000000e-01	-1.000000e-01	6.004247e-05	
152	-6.200000e-01	-1.000000e-01	8.101979e-05	
153	-6.400000e-01	-1.000000e-01	1.049222e-04	
154	-6.600000e-01	-1.000000e-01	1.309246e-04	
155	-6.800000e-01	-1.000000e-01	1.582247e-04	
156	-7.000000e-01	-1.000000e-01	1.861654e-04	
157	-7.200000e-01	-1.000000e-01	2.142613e-04	
158	-7.400000e-01	-1.000000e-01	2.421728e-04	
159	-7.600000e-01	-1.000000e-01	2.696695e-04	
160	-7.800000e-01	-1.000000e-01	2.965978e-04	
161	-8.000000e-01	-1.000000e-01	3.228573e-04	
162	-8.200000e-01	-1.000000e-01	3.483842e-04	
163	-8.400000e-01	-1.000000e-01	3.731400e-04	
164	-8.600000e-01	-1.000000e-01	3.971035e-04	
165	-8.800000e-01	-1.000000e-01	4.202661e-04	
166	-9.000000e-01	-1.000000e-01	4.426276e-04	
167	-9.200000e-01	-1.000000e-01	4.641942e-04	
168	-9.400000e-01	-1.000000e-01	4.849767e-04	
169	-9.600000e-01	-1.000000e-01	5.049888e-04	
170	-9.800000e-01	-1.000000e-01	5.242467e-04	

Index   v-sweep         v(2)            vds#branch      
--------------------------------------------------------------------------------
171	-1.000000e+00	-1.000000e-01	5.427682e-04	
172	-1.020000e+00	-1.000000e-01	5.605721e-04	
173	-1.040000e+00	-1.000000e-01	5.776780e-04	
174	-1.060000e+00	-1.000000e-01	5.941060e-04	
175	-1.080000e+00	-1.000000e-01	6.098763e-04	
176	-1.100000e+00	-1.000000e-01	6.250092e-04	
177	-1.120000e+00	-1.000000e-01	6.395249e-04	
178	-1.140000e+00	-1.000000e-01	6.534433e-04	
179	-1.160000e+00	-1.000000e-01	6.667842e-04	
180	-1.180000e+00	-1.000000e-01	6.795670e-04	
181	-1.200000e+00	-1.000000e-01	6.918105e-04	
182	6.000000e-01	-1.000000e-01	3.827618e-11	
183	5.800000e-01	-1.000000e-01	3.819419e-11	
184	5.600000e-01	-1.000000e-01	3.813641e-11	
185	5.400000e-01	-1.000000e-01	3.808208e-11	
186	5.200000e-01	-1.000000e-01	3.803610e-11	
187	5.000000e-01	-1.000000e-01	3.799726e-11	
188	4.800000e-01	-1.000000e-01	3.796449e-11	
189	4.600000e-01	-1.000000e-01	3.793688e-11	
190	4.400000e-01	-1.000000e-01	3.791365e-11	
191	4.200000e-01	-1.000000e-01	3.789415e-11	
192	4.000000e-01	-1.000000e-01	3.787781e-11	
193	3.800000e-01	-1.000000e-01	3.786414e-11	
194	3.600000e-01	-1.000000e-01	3.785272e-11	
195	3.400000e-01	-1.000000e-01	3.784321e-11	
196	3.200000e-01	-1.000000e-01	3.783531e-11	
197	3.000000e-01	-1.000000e-01	3.782876e-11	
198	2.800000e-01	-1.000000e-01	3.782335e-11	
199	2.600000e-01	-1.000000e-01	3.781889e-11	
200	2.400000e-01	-1.000000e-01	3.781523e-11	
201	2.200000e-01	-1.000000e-01	3.781224e-11	
202	2.000000e-01	-1.000000e-01	3.780980e-11	
203	1.800000e-01	-1.000000e-01	3.780782e-11	
204	1.600000e-01	-1.000000e-01	3.780623e-11	
205	1.400000e-01	-1.000000e-01	3.780496e-11	
206	1.200000e-01	-1.000000e-01	3.780397e-11	
207	1.000000e-01	-1.000000e-01	3.780325e-11	
208	8.000000e-02	-1.000000e-01	3.780282e-11	
209	6.000000e-02	-1.000000e-01	3.780279e-11	
210	4.000000e-02	-1.000000e-01	3.780350e-11	
211	2.000000e-02	-1.000000e-01	3.780578e-11	
212	-1.734723e-16	-1.000000e-01	3.781159e-11	
213	-2.000000e-02	-1.000000e-01	3.782557e-11	
214	-4.000000e-02	-1.000000e-01	3.785860e-11	
215	-6.000000e-02	-1.000000e-01	3.793628e-11	
216	-8.000000e-02	-1.000000e-01	3.811855e-11	
217	-1.000000e-01	-1.000000e-01	3.854592e-11	
218	-1.200000e-01	-1.000000e-01	3.954716e-11	
219	-1.400000e-01	-1.000000e-01	4.189053e-11	
220	-1.600000e-01	-1.000000e-01	4.736720e-11	
221	-1.800000e-01	-1.000000e-01	6.013922e-11	
222	-2.000000e-01	-1.000000e-01	8.982894e-11	
223	-2.200000e-01	-1.000000e-01	1.585164e-10	
224	-2.400000e-01	-1.000000e-01	3.163111e-10	
225	-2.600000e-01	-1.000000e-01	6.751167e-10	
226	-2.800000e-01	-1.000000e-01	1.479130e-09	
227	-3.000000e-01	-1.000000e-01	3.244338e-09	
228	-3.200000e-01	-1.000000e-01	7.014891e-09	

Index   v-sweep         v(2)            vds#branch      
--------------------------------------------------------------------------------
229	-3.400000e-01	-1.000000e-01	1.479119e-08	
230	-3.600000e-01	-1.000000e-01	3.016942e-08	
231	-3.800000e-01	-1.000000e-01	5.920912e-08	
232	-4.000000e-01	-1.000000e-01	1.115939e-07	
233	-4.200000e-01	-1.000000e-01	2.023758e-07	
234	-4.400000e-01	-1.000000e-01	3.549956e-07	
235	-4.600000e-01	-1.000000e-01	6.067432e-07	
236	-4.800000e-01	-1.000000e-01	1.018383e-06	
237	-5.000000e-01	-1.000000e-01	1.690393e-06	
238	-5.200000e-01	-1.000000e-01	2.788596e-06	
239	-5.400000e-01	-1.000000e-01	4.579748e-06	
240	-5.600000e-01	-1.000000e-01	7.468954e-06	
241	-5.800000e-01	-1.000000e-01	1.201412e-05	
242	-6.000000e-01	-1.000000e-01	1.887938e-05	
243	-6.200000e-01	-1.000000e-01	2.870475e-05	
244	-6.400000e-01	-1.000000e-01	4.192145e-05	
245	-6.600000e-01	-1.000000e-01	5.859255e-05	
246	-6.800000e-01	-1.000000e-01	7.836572e-05	
247	-7.000000e-01	-1.000000e-01	1.005792e-04	
248	-7.200000e-01	-1.000000e-01	1.244658e-04	
249	-7.400000e-01	-1.000000e-01	1.493312e-04	
250	-7.600000e-01	-1.000000e-01	1.746336e-04	
251	-7.800000e-01	-1.000000e-01	1.999836e-04	
252	-8.000000e-01	-1.000000e-01	2.251136e-04	
253	-8.200000e-01	-1.000000e-01	2.498434e-04	
254	-8.400000e-01	-1.000000e-01	2.740538e-04	
255	-8.600000e-01	-1.000000e-01	2.976675e-04	
256	-8.800000e-01	-1.000000e-01	3.206353e-04	
257	-9.000000e-01	-1.000000e-01	3.429280e-04	
258	-9.200000e-01	-1.000000e-01	3.645298e-04	
259	-9.400000e-01	-1.000000e-01	3.854348e-04	
260	-9.600000e-01	-1.000000e-01	4.056439e-04	
261	-9.800000e-01	-1.000000e-01	4.251628e-04	
262	-1.000000e+00	-1.000000e-01	4.440009e-04	
263	-1.020000e+00	-1.000000e-01	4.621701e-04	
264	-1.040000e+00	-1.000000e-01	4.796840e-04	
265	-1.060000e+00	-1.000000e-01	4.965576e-04	
266	-1.080000e+00	-1.000000e-01	5.128070e-04	
267	-1.100000e+00	-1.000000e-01	5.284486e-04	
268	-1.120000e+00	-1.000000e-01	5.434992e-04	
269	-1.140000e+00	-1.000000e-01	5.579759e-04	
270	-1.160000e+00	-1.000000e-01	5.718958e-04	
271	-1.180000e+00	-1.000000e-01	5.852759e-04	
272	-1.200000e+00	-1.000000e-01	5.981329e-04	
273	6.000000e-01	-1.000000e-01	1.561333e-10	
274	5.800000e-01	-1.000000e-01	1.560513e-10	
275	5.600000e-01	-1.000000e-01	1.559935e-10	
276	5.400000e-01	-1.000000e-01	1.559392e-10	
277	5.200000e-01	-1.000000e-01	1.558932e-10	
278	5.000000e-01	-1.000000e-01	1.558544e-10	
279	4.800000e-01	-1.000000e-01	1.558216e-10	
280	4.600000e-01	-1.000000e-01	1.557940e-10	
281	4.400000e-01	-1.000000e-01	1.557708e-10	
282	4.200000e-01	-1.000000e-01	1.557513e-10	
283	4.000000e-01	-1.000000e-01	1.557349e-10	
284	3.800000e-01	-1.000000e-01	1.557213e-10	
285	3.600000e-01	-1.000000e-01	1.557099e-10	
286	3.400000e-01	-1.000000e-01	1.557003e-10	

Index   v-sweep         v(2)            vds#branch      
--------------------------------------------------------------------------------
287	3.200000e-01	-1.000000e-01	1.556924e-10	
288	3.000000e-01	-1.000000e-01	1.556859e-10	
289	2.800000e-01	-1.000000e-01	1.556805e-10	
290	2.600000e-01	-1.000000e-01	1.556760e-10	
291	2.400000e-01	-1.000000e-01	1.556724e-10	
292	2.200000e-01	-1.000000e-01	1.556694e-10	
293	2.000000e-01	-1.000000e-01	1.556669e-10	
294	1.800000e-01	-1.000000e-01	1.556649e-10	
295	1.600000e-01	-1.000000e-01	1.556633e-10	
296	1.400000e-01	-1.000000e-01	1.556621e-10	
297	1.200000e-01	-1.000000e-01	1.556610e-10	
298	1.000000e-01	-1.000000e-01	1.556602e-10	
299	8.000000e-02	-1.000000e-01	1.556596e-10	
300	6.000000e-02	-1.000000e-01	1.556592e-10	
301	4.000000e-02	-1.000000e-01	1.556589e-10	
302	2.000000e-02	-1.000000e-01	1.556588e-10	
303	-1.734723e-16	-1.000000e-01	1.556590e-10	
304	-2.000000e-02	-1.000000e-01	1.556599e-10	
305	-4.000000e-02	-1.000000e-01	1.556624e-10	
306	-6.000000e-02	-1.000000e-01	1.556684e-10	
307	-8.000000e-02	-1.000000e-01	1.556828e-10	
308	-1.000000e-01	-1.000000e-01	1.557172e-10	
309	-1.200000e-01	-1.000000e-01	1.557991e-10	
310	-1.400000e-01	-1.000000e-01	1.559942e-10	
311	-1.600000e-01	-1.000000e-01	1.564583e-10	
312	-1.800000e-01	-1.000000e-01	1.575615e-10	
313	-2.000000e-01	-1.000000e-01	1.601805e-10	
314	-2.200000e-01	-1.000000e-01	1.663878e-10	
315	-2.400000e-01	-1.000000e-01	1.810609e-10	
316	-2.600000e-01	-1.000000e-01	2.156120e-10	
317	-2.800000e-01	-1.000000e-01	2.964964e-10	
318	-3.000000e-01	-1.000000e-01	4.841943e-10	
319	-3.200000e-01	-1.000000e-01	9.142208e-10	
320	-3.400000e-01	-1.000000e-01	1.881699e-09	
321	-3.600000e-01	-1.000000e-01	4.004644e-09	
322	-3.800000e-01	-1.000000e-01	8.512425e-09	
323	-4.000000e-01	-1.000000e-01	1.770212e-08	
324	-4.200000e-01	-1.000000e-01	3.558269e-08	
325	-4.400000e-01	-1.000000e-01	6.872825e-08	
326	-4.600000e-01	-1.000000e-01	1.274838e-07	
327	-4.800000e-01	-1.000000e-01	2.279593e-07	
328	-5.000000e-01	-1.000000e-01	3.956360e-07	
329	-5.200000e-01	-1.000000e-01	6.718513e-07	
330	-5.400000e-01	-1.000000e-01	1.125055e-06	
331	-5.600000e-01	-1.000000e-01	1.869463e-06	
332	-5.800000e-01	-1.000000e-01	3.093476e-06	
333	-6.000000e-01	-1.000000e-01	5.095948e-06	
334	-6.200000e-01	-1.000000e-01	8.316265e-06	
335	-6.400000e-01	-1.000000e-01	1.332677e-05	
336	-6.600000e-01	-1.000000e-01	2.075254e-05	
337	-6.800000e-01	-1.000000e-01	3.111695e-05	
338	-7.000000e-01	-1.000000e-01	4.466811e-05	
339	-7.200000e-01	-1.000000e-01	6.127252e-05	
340	-7.400000e-01	-1.000000e-01	8.044326e-05	
341	-7.600000e-01	-1.000000e-01	1.014991e-04	
342	-7.800000e-01	-1.000000e-01	1.237573e-04	
343	-8.000000e-01	-1.000000e-01	1.466529e-04	
344	-8.200000e-01	-1.000000e-01	1.697683e-04	

Index   v-sweep         v(2)            vds#branch      
--------------------------------------------------------------------------------
345	-8.400000e-01	-1.000000e-01	1.928120e-04	
346	-8.600000e-01	-1.000000e-01	2.155864e-04	
347	-8.800000e-01	-1.000000e-01	2.379599e-04	
348	-9.000000e-01	-1.000000e-01	2.598457e-04	
349	-9.200000e-01	-1.000000e-01	2.811876e-04	
350	-9.400000e-01	-1.000000e-01	3.019507e-04	
351	-9.600000e-01	-1.000000e-01	3.221143e-04	
352	-9.800000e-01	-1.000000e-01	3.416683e-04	
353	-1.000000e+00	-1.000000e-01	3.606095e-04	
354	-1.020000e+00	-1.000000e-01	3.789400e-04	
355	-1.040000e+00	-1.000000e-01	3.966657e-04	
356	-1.060000e+00	-1.000000e-01	4.137951e-04	
357	-1.080000e+00	-1.000000e-01	4.303386e-04	
358	-1.100000e+00	-1.000000e-01	4.463084e-04	
359	-1.120000e+00	-1.000000e-01	4.617172e-04	
360	-1.140000e+00	-1.000000e-01	4.765788e-04	
361	-1.160000e+00	-1.000000e-01	4.909072e-04	
362	-1.180000e+00	-1.000000e-01	5.047168e-04	
363	-1.200000e+00	-1.000000e-01	5.180222e-04	
364	6.000000e-01	-1.000000e-01	5.590689e-10	
365	5.800000e-01	-1.000000e-01	5.589869e-10	
366	5.600000e-01	-1.000000e-01	5.589291e-10	
367	5.400000e-01	-1.000000e-01	5.588748e-10	
368	5.200000e-01	-1.000000e-01	5.588288e-10	
369	5.000000e-01	-1.000000e-01	5.587900e-10	
370	4.800000e-01	-1.000000e-01	5.587572e-10	
371	4.600000e-01	-1.000000e-01	5.587296e-10	
372	4.400000e-01	-1.000000e-01	5.587064e-10	
373	4.200000e-01	-1.000000e-01	5.586869e-10	
374	4.000000e-01	-1.000000e-01	5.586705e-10	
375	3.800000e-01	-1.000000e-01	5.586569e-10	
376	3.600000e-01	-1.000000e-01	5.586454e-10	
377	3.400000e-01	-1.000000e-01	5.586359e-10	
378	3.200000e-01	-1.000000e-01	5.586280e-10	
379	3.000000e-01	-1.000000e-01	5.586215e-10	
380	2.800000e-01	-1.000000e-01	5.586161e-10	
381	2.600000e-01	-1.000000e-01	5.586116e-10	
382	2.400000e-01	-1.000000e-01	5.586080e-10	
383	2.200000e-01	-1.000000e-01	5.586050e-10	
384	2.000000e-01	-1.000000e-01	5.586025e-10	
385	1.800000e-01	-1.000000e-01	5.586005e-10	
386	1.600000e-01	-1.000000e-01	5.585989e-10	
387	1.400000e-01	-1.000000e-01	5.585977e-10	
388	1.200000e-01	-1.000000e-01	5.585966e-10	
389	1.000000e-01	-1.000000e-01	5.585958e-10	
390	8.000000e-02	-1.000000e-01	5.585952e-10	
391	6.000000e-02	-1.000000e-01	5.585947e-10	
392	4.000000e-02	-1.000000e-01	5.585943e-10	
393	2.000000e-02	-1.000000e-01	5.585941e-10	
394	-1.734723e-16	-1.000000e-01	5.585939e-10	
395	-2.000000e-02	-1.000000e-01	5.585938e-10	
396	-4.000000e-02	-1.000000e-01	5.585940e-10	
397	-6.000000e-02	-1.000000e-01	5.585944e-10	
398	-8.000000e-02	-1.000000e-01	5.585957e-10	
399	-1.000000e-01	-1.000000e-01	5.585988e-10	
400	-1.200000e-01	-1.000000e-01	5.586065e-10	
401	-1.400000e-01	-1.000000e-01	5.586248e-10	
402	-1.600000e-01	-1.000000e-01	5.586691e-10	

Index   v-sweep         v(2)            vds#branch      
--------------------------------------------------------------------------------
403	-1.800000e-01	-1.000000e-01	5.587755e-10	
404	-2.000000e-01	-1.000000e-01	5.590315e-10	
405	-2.200000e-01	-1.000000e-01	5.596470e-10	
406	-2.400000e-01	-1.000000e-01	5.611259e-10	
407	-2.600000e-01	-1.000000e-01	5.646792e-10	
408	-2.800000e-01	-1.000000e-01	5.732064e-10	
409	-3.000000e-01	-1.000000e-01	5.935968e-10	
410	-3.200000e-01	-1.000000e-01	6.420657e-10	
411	-3.400000e-01	-1.000000e-01	7.563122e-10	
412	-3.600000e-01	-1.000000e-01	1.022425e-09	
413	-3.800000e-01	-1.000000e-01	1.631945e-09	
414	-4.000000e-01	-1.000000e-01	2.995778e-09	
415	-4.200000e-01	-1.000000e-01	5.953365e-09	
416	-4.400000e-01	-1.000000e-01	1.211760e-08	
417	-4.600000e-01	-1.000000e-01	2.437915e-08	
418	-4.800000e-01	-1.000000e-01	4.758025e-08	
419	-5.000000e-01	-1.000000e-01	8.943618e-08	
420	-5.200000e-01	-1.000000e-01	1.619999e-07	
421	-5.400000e-01	-1.000000e-01	2.842895e-07	
422	-5.600000e-01	-1.000000e-01	4.870650e-07	
423	-5.800000e-01	-1.000000e-01	8.212485e-07	
424	-6.000000e-01	-1.000000e-01	1.372234e-06	
425	-6.200000e-01	-1.000000e-01	2.282750e-06	
426	-6.400000e-01	-1.000000e-01	3.784910e-06	
427	-6.600000e-01	-1.000000e-01	6.233699e-06	
428	-6.800000e-01	-1.000000e-01	1.011809e-05	
429	-7.000000e-01	-1.000000e-01	1.601411e-05	
430	-7.200000e-01	-1.000000e-01	2.446211e-05	
431	-7.400000e-01	-1.000000e-01	3.580149e-05	
432	-7.600000e-01	-1.000000e-01	5.003987e-05	
433	-7.800000e-01	-1.000000e-01	6.683172e-05	
434	-8.000000e-01	-1.000000e-01	8.559126e-05	
435	-8.200000e-01	-1.000000e-01	1.056747e-04	
436	-8.400000e-01	-1.000000e-01	1.265208e-04	
437	-8.600000e-01	-1.000000e-01	1.477028e-04	
438	-8.800000e-01	-1.000000e-01	1.689188e-04	
439	-9.000000e-01	-1.000000e-01	1.899628e-04	
440	-9.200000e-01	-1.000000e-01	2.106969e-04	
441	-9.400000e-01	-1.000000e-01	2.310293e-04	
442	-9.600000e-01	-1.000000e-01	2.509001e-04	
443	-9.800000e-01	-1.000000e-01	2.702709e-04	
444	-1.000000e+00	-1.000000e-01	2.891179e-04	
445	-1.020000e+00	-1.000000e-01	3.074281e-04	
446	-1.040000e+00	-1.000000e-01	3.251955e-04	
447	-1.060000e+00	-1.000000e-01	3.424197e-04	
448	-1.080000e+00	-1.000000e-01	3.591038e-04	
449	-1.100000e+00	-1.000000e-01	3.752537e-04	
450	-1.120000e+00	-1.000000e-01	3.908777e-04	
451	-1.140000e+00	-1.000000e-01	4.059850e-04	
452	-1.160000e+00	-1.000000e-01	4.205863e-04	
453	-1.180000e+00	-1.000000e-01	4.346929e-04	
454	-1.200000e+00	-1.000000e-01	4.483167e-04	

CPU time since last call: 0.046 seconds.

Total CPU time: 0.046 seconds.

Current dynamic memory usage = 131072,
Dynamic memory limit = -491521.

