
Circuit: ** NMOSFET: Benchmarking Implementation of BSIM4 by Jane Xi 05/09/2003.

Doing analysis at TEMP = 300.150000 and TNOM = 300.150000
Warning: toxe, toxp and dtox all given and toxe != toxp + dtox; dtox ignored.
    ** NMOSFET: Benchmarking Implementation of BSIM4 by Jane Xi 05/09/2003.
    DC transfer characteristic  Sat Aug 27 16:00:30  2005
--------------------------------------------------------------------------------
Index   v-sweep         v(2)            vds#branch      
--------------------------------------------------------------------------------
0	0.000000e+00	5.000000e-02	-6.313897e-09	
1	2.000000e-02	5.000000e-02	-1.120703e-08	
2	4.000000e-02	5.000000e-02	-1.981909e-08	
3	6.000000e-02	5.000000e-02	-3.488176e-08	
4	8.000000e-02	5.000000e-02	-6.102023e-08	
5	1.000000e-01	5.000000e-02	-1.059391e-07	
6	1.200000e-01	5.000000e-02	-1.822253e-07	
7	1.400000e-01	5.000000e-02	-3.099838e-07	
8	1.600000e-01	5.000000e-02	-5.205407e-07	
9	1.800000e-01	5.000000e-02	-8.614666e-07	
10	2.000000e-01	5.000000e-02	-1.403249e-06	
11	2.200000e-01	5.000000e-02	-2.248143e-06	
12	2.400000e-01	5.000000e-02	-3.541987e-06	
13	2.600000e-01	5.000000e-02	-5.489806e-06	
14	2.800000e-01	5.000000e-02	-8.374906e-06	
15	3.000000e-01	5.000000e-02	-1.257798e-05	
16	3.200000e-01	5.000000e-02	-1.858687e-05	
17	3.400000e-01	5.000000e-02	-2.698087e-05	
18	3.600000e-01	5.000000e-02	-3.836830e-05	
19	3.800000e-01	5.000000e-02	-5.327624e-05	
20	4.000000e-01	5.000000e-02	-7.203481e-05	
21	4.200000e-01	5.000000e-02	-9.468088e-05	
22	4.400000e-01	5.000000e-02	-1.209409e-04	
23	4.600000e-01	5.000000e-02	-1.502923e-04	
24	4.800000e-01	5.000000e-02	-1.820679e-04	
25	5.000000e-01	5.000000e-02	-2.155615e-04	
26	5.200000e-01	5.000000e-02	-2.501083e-04	
27	5.400000e-01	5.000000e-02	-2.851310e-04	
28	5.600000e-01	5.000000e-02	-3.201581e-04	
29	5.800000e-01	5.000000e-02	-3.548233e-04	
30	6.000000e-01	5.000000e-02	-3.888530e-04	
31	6.200000e-01	5.000000e-02	-4.220516e-04	
32	6.400000e-01	5.000000e-02	-4.542845e-04	
33	6.600000e-01	5.000000e-02	-4.854648e-04	
34	6.800000e-01	5.000000e-02	-5.155409e-04	
35	7.000000e-01	5.000000e-02	-5.444874e-04	
36	7.200000e-01	5.000000e-02	-5.722980e-04	
37	7.400000e-01	5.000000e-02	-5.989798e-04	
38	7.600000e-01	5.000000e-02	-6.245495e-04	
39	7.800000e-01	5.000000e-02	-6.490306e-04	
40	8.000000e-01	5.000000e-02	-6.724508e-04	
41	8.200000e-01	5.000000e-02	-6.948408e-04	
42	8.400000e-01	5.000000e-02	-7.162333e-04	
43	8.600000e-01	5.000000e-02	-7.366617e-04	
44	8.800000e-01	5.000000e-02	-7.561597e-04	
45	9.000000e-01	5.000000e-02	-7.747612e-04	
46	9.200000e-01	5.000000e-02	-7.924997e-04	
47	9.400000e-01	5.000000e-02	-8.094079e-04	
48	9.600000e-01	5.000000e-02	-8.255179e-04	
49	9.800000e-01	5.000000e-02	-8.408609e-04	
50	1.000000e+00	5.000000e-02	-8.554673e-04	
51	1.020000e+00	5.000000e-02	-8.693664e-04	
52	1.040000e+00	5.000000e-02	-8.825866e-04	
53	1.060000e+00	5.000000e-02	-8.951552e-04	
54	1.080000e+00	5.000000e-02	-9.070985e-04	

Index   v-sweep         v(2)            vds#branch      
--------------------------------------------------------------------------------
55	1.100000e+00	5.000000e-02	-9.184419e-04	
56	1.120000e+00	5.000000e-02	-9.292096e-04	
57	1.140000e+00	5.000000e-02	-9.394252e-04	
58	1.160000e+00	5.000000e-02	-9.491108e-04	
59	1.180000e+00	5.000000e-02	-9.582881e-04	
60	1.200000e+00	5.000000e-02	-9.669776e-04	
61	0.000000e+00	5.500000e-01	-1.101381e-08	
62	2.000000e-02	5.500000e-01	-1.920665e-08	
63	4.000000e-02	5.500000e-01	-3.366622e-08	
64	6.000000e-02	5.500000e-01	-5.898789e-08	
65	8.000000e-02	5.500000e-01	-1.029479e-07	
66	1.000000e-01	5.500000e-01	-1.784875e-07	
67	1.200000e-01	5.500000e-01	-3.067158e-07	
68	1.400000e-01	5.500000e-01	-5.212668e-07	
69	1.600000e-01	5.500000e-01	-8.743454e-07	
70	1.800000e-01	5.500000e-01	-1.444765e-06	
71	2.000000e-01	5.500000e-01	-2.348323e-06	
72	2.200000e-01	5.500000e-01	-3.751108e-06	
73	2.400000e-01	5.500000e-01	-5.886868e-06	
74	2.600000e-01	5.500000e-01	-9.080110e-06	
75	2.800000e-01	5.500000e-01	-1.377638e-05	
76	3.000000e-01	5.500000e-01	-2.057899e-05	
77	3.200000e-01	5.500000e-01	-3.028653e-05	
78	3.400000e-01	5.500000e-01	-4.391825e-05	
79	3.600000e-01	5.500000e-01	-6.270136e-05	
80	3.800000e-01	5.500000e-01	-8.800405e-05	
81	4.000000e-01	5.500000e-01	-1.212342e-04	
82	4.200000e-01	5.500000e-01	-1.636774e-04	
83	4.400000e-01	5.500000e-01	-2.163397e-04	
84	4.600000e-01	5.500000e-01	-2.798353e-04	
85	4.800000e-01	5.500000e-01	-3.543478e-04	
86	5.000000e-01	5.500000e-01	-4.396630e-04	
87	5.200000e-01	5.500000e-01	-5.352529e-04	
88	5.400000e-01	5.500000e-01	-6.403773e-04	
89	5.600000e-01	5.500000e-01	-7.541814e-04	
90	5.800000e-01	5.500000e-01	-8.757719e-04	
91	6.000000e-01	5.500000e-01	-1.004271e-03	
92	6.200000e-01	5.500000e-01	-1.138849e-03	
93	6.400000e-01	5.500000e-01	-1.278740e-03	
94	6.600000e-01	5.500000e-01	-1.423248e-03	
95	6.800000e-01	5.500000e-01	-1.571742e-03	
96	7.000000e-01	5.500000e-01	-1.723657e-03	
97	7.200000e-01	5.500000e-01	-1.878483e-03	
98	7.400000e-01	5.500000e-01	-2.035757e-03	
99	7.600000e-01	5.500000e-01	-2.195060e-03	
100	7.800000e-01	5.500000e-01	-2.356010e-03	
101	8.000000e-01	5.500000e-01	-2.518252e-03	
102	8.200000e-01	5.500000e-01	-2.681462e-03	
103	8.400000e-01	5.500000e-01	-2.845335e-03	
104	8.600000e-01	5.500000e-01	-3.009586e-03	
105	8.800000e-01	5.500000e-01	-3.173948e-03	
106	9.000000e-01	5.500000e-01	-3.338165e-03	
107	9.200000e-01	5.500000e-01	-3.501995e-03	
108	9.400000e-01	5.500000e-01	-3.665206e-03	
109	9.600000e-01	5.500000e-01	-3.827576e-03	
110	9.800000e-01	5.500000e-01	-3.988888e-03	
111	1.000000e+00	5.500000e-01	-4.148934e-03	
112	1.020000e+00	5.500000e-01	-4.307512e-03	

Index   v-sweep         v(2)            vds#branch      
--------------------------------------------------------------------------------
113	1.040000e+00	5.500000e-01	-4.464425e-03	
114	1.060000e+00	5.500000e-01	-4.619484e-03	
115	1.080000e+00	5.500000e-01	-4.772502e-03	
116	1.100000e+00	5.500000e-01	-4.923302e-03	
117	1.120000e+00	5.500000e-01	-5.071712e-03	
118	1.140000e+00	5.500000e-01	-5.217568e-03	
119	1.160000e+00	5.500000e-01	-5.360717e-03	
120	1.180000e+00	5.500000e-01	-5.501015e-03	
121	1.200000e+00	5.500000e-01	-5.638334e-03	
122	0.000000e+00	1.050000e+00	-2.293268e-08	
123	2.000000e-02	1.050000e+00	-3.331291e-08	
124	4.000000e-02	1.050000e+00	-5.232309e-08	
125	6.000000e-02	1.050000e+00	-8.622149e-08	
126	8.000000e-02	1.050000e+00	-1.455978e-07	
127	1.000000e-01	1.050000e+00	-2.480638e-07	
128	1.200000e-01	1.050000e+00	-4.223083e-07	
129	1.400000e-01	1.050000e+00	-7.139378e-07	
130	1.600000e-01	1.050000e+00	-1.193476e-06	
131	1.800000e-01	1.050000e+00	-1.966767e-06	
132	2.000000e-01	1.050000e+00	-3.187928e-06	
133	2.200000e-01	1.050000e+00	-5.075099e-06	
134	2.400000e-01	1.050000e+00	-7.929692e-06	
135	2.600000e-01	1.050000e+00	-1.216033e-05	
136	2.800000e-01	1.050000e+00	-1.831241e-05	
137	3.000000e-01	1.050000e+00	-2.710184e-05	
138	3.200000e-01	1.050000e+00	-3.944662e-05	
139	3.400000e-01	1.050000e+00	-5.648248e-05	
140	3.600000e-01	1.050000e+00	-7.953605e-05	
141	3.800000e-01	1.050000e+00	-1.100427e-04	
142	4.000000e-01	1.050000e+00	-1.494381e-04	
143	4.200000e-01	1.050000e+00	-1.989898e-04	
144	4.400000e-01	1.050000e+00	-2.596448e-04	
145	4.600000e-01	1.050000e+00	-3.319279e-04	
146	4.800000e-01	1.050000e+00	-4.159173e-04	
147	5.000000e-01	1.050000e+00	-5.112925e-04	
148	5.200000e-01	1.050000e+00	-6.174275e-04	
149	5.400000e-01	1.050000e+00	-7.334999e-04	
150	5.600000e-01	1.050000e+00	-8.585900e-04	
151	5.800000e-01	1.050000e+00	-9.917574e-04	
152	6.000000e-01	1.050000e+00	-1.132093e-03	
153	6.200000e-01	1.050000e+00	-1.278749e-03	
154	6.400000e-01	1.050000e+00	-1.430954e-03	
155	6.600000e-01	1.050000e+00	-1.588013e-03	
156	6.800000e-01	1.050000e+00	-1.749308e-03	
157	7.000000e-01	1.050000e+00	-1.914289e-03	
158	7.200000e-01	1.050000e+00	-2.082469e-03	
159	7.400000e-01	1.050000e+00	-2.253412e-03	
160	7.600000e-01	1.050000e+00	-2.426731e-03	
161	7.800000e-01	1.050000e+00	-2.602077e-03	
162	8.000000e-01	1.050000e+00	-2.779136e-03	
163	8.200000e-01	1.050000e+00	-2.957626e-03	
164	8.400000e-01	1.050000e+00	-3.137289e-03	
165	8.600000e-01	1.050000e+00	-3.317889e-03	
166	8.800000e-01	1.050000e+00	-3.499212e-03	
167	9.000000e-01	1.050000e+00	-3.681061e-03	
168	9.200000e-01	1.050000e+00	-3.863253e-03	
169	9.400000e-01	1.050000e+00	-4.045623e-03	
170	9.600000e-01	1.050000e+00	-4.228015e-03	

Index   v-sweep         v(2)            vds#branch      
--------------------------------------------------------------------------------
171	9.800000e-01	1.050000e+00	-4.410285e-03	
172	1.000000e+00	1.050000e+00	-4.592301e-03	
173	1.020000e+00	1.050000e+00	-4.773939e-03	
174	1.040000e+00	1.050000e+00	-4.955083e-03	
175	1.060000e+00	1.050000e+00	-5.135626e-03	
176	1.080000e+00	1.050000e+00	-5.315466e-03	
177	1.100000e+00	1.050000e+00	-5.494511e-03	
178	1.120000e+00	1.050000e+00	-5.672671e-03	
179	1.140000e+00	1.050000e+00	-5.849863e-03	
180	1.160000e+00	1.050000e+00	-6.026009e-03	
181	1.180000e+00	1.050000e+00	-6.201036e-03	
182	1.200000e+00	1.050000e+00	-6.374874e-03	

CPU time since last call: 0.029 seconds.

Total CPU time: 0.029 seconds.

Current dynamic memory usage = 131072,
Dynamic memory limit = -491521.

