
Circuit: ** NMOSFET: Benchmarking Implementation of BSIM4.1.0 by Weidong Liu 10/11/2000.

Circuit: ** NMOSFET: Benchmarking Implementation of BSIM4.1.0 by Weidong Liu 10/11/2000.
Date: Wed Oct 11 05:31:55  2000


** NMOSFET: Benchmarking Implementation of BSIM4.1.0 by Weidong Liu 10/11/2000.
DC transfer characteristic  Wed Oct 11 05:31:55  2000
--------------------------------------------------------------------------------
Index   sweep           v(1)            vds#branch      
--------------------------------------------------------------------------------
0	0.000000e+00	0.000000e+00	-1.018321e-26	
1	5.000000e-02	0.000000e+00	-7.499006e-11	
2	1.000000e-01	0.000000e+00	-9.107176e-11	
3	1.500000e-01	0.000000e+00	-9.476918e-11	
4	2.000000e-01	0.000000e+00	-9.588118e-11	
5	2.500000e-01	0.000000e+00	-9.646151e-11	
6	3.000000e-01	0.000000e+00	-9.694393e-11	
7	3.500000e-01	0.000000e+00	-9.742090e-11	
8	4.000000e-01	0.000000e+00	-9.791268e-11	
9	4.500000e-01	0.000000e+00	-9.842424e-11	
10	5.000000e-01	0.000000e+00	-9.895718e-11	
11	5.500000e-01	0.000000e+00	-9.951251e-11	
12	6.000000e-01	0.000000e+00	-1.000911e-10	
13	6.500000e-01	0.000000e+00	-1.006938e-10	
14	7.000000e-01	0.000000e+00	-1.013216e-10	
15	7.500000e-01	0.000000e+00	-1.019750e-10	
16	8.000000e-01	0.000000e+00	-1.026552e-10	
17	8.500000e-01	0.000000e+00	-1.033631e-10	
18	9.000000e-01	0.000000e+00	-1.040996e-10	
19	9.500000e-01	0.000000e+00	-1.048655e-10	
20	1.000000e+00	0.000000e+00	-1.056620e-10	
21	1.050000e+00	0.000000e+00	-1.064902e-10	
22	1.100000e+00	0.000000e+00	-1.073510e-10	
23	1.150000e+00	0.000000e+00	-1.082455e-10	
24	1.200000e+00	0.000000e+00	-1.091749e-10	
25	1.250000e+00	0.000000e+00	-1.101403e-10	
26	1.300000e+00	0.000000e+00	-1.111434e-10	
27	1.350000e+00	0.000000e+00	-1.121854e-10	
28	1.400000e+00	0.000000e+00	-1.132707e-10	
29	1.450000e+00	0.000000e+00	-1.144279e-10	
30	1.500000e+00	0.000000e+00	-1.158582e-10	
31	1.550000e+00	0.000000e+00	-1.186755e-10	
32	1.600000e+00	0.000000e+00	-1.277695e-10	
33	1.650000e+00	0.000000e+00	-1.607402e-10	
34	1.700000e+00	0.000000e+00	-2.712528e-10	
35	1.750000e+00	0.000000e+00	-6.017036e-10	
36	0.000000e+00	3.000000e-01	1.902981e-18	
37	5.000000e-02	3.000000e-01	-6.649294e-09	
38	1.000000e-01	3.000000e-01	-8.780198e-09	
39	1.500000e-01	3.000000e-01	-1.015796e-08	
40	2.000000e-01	3.000000e-01	-1.148288e-08	
41	2.500000e-01	3.000000e-01	-1.284685e-08	
42	3.000000e-01	3.000000e-01	-1.426934e-08	
43	3.500000e-01	3.000000e-01	-1.575737e-08	
44	4.000000e-01	3.000000e-01	-1.731494e-08	
45	4.500000e-01	3.000000e-01	-1.894516e-08	
46	5.000000e-01	3.000000e-01	-2.065085e-08	
47	5.500000e-01	3.000000e-01	-2.243479e-08	
48	6.000000e-01	3.000000e-01	-2.429974e-08	
49	6.500000e-01	3.000000e-01	-2.624852e-08	
50	7.000000e-01	3.000000e-01	-2.828399e-08	
51	7.500000e-01	3.000000e-01	-3.040912e-08	
52	8.000000e-01	3.000000e-01	-3.262694e-08	
53	8.500000e-01	3.000000e-01	-3.494054e-08	
54	9.000000e-01	3.000000e-01	-3.735313e-08	

Index   sweep           v(1)            vds#branch      
--------------------------------------------------------------------------------
55	9.500000e-01	3.000000e-01	-3.986799e-08	
56	1.000000e+00	3.000000e-01	-4.248849e-08	
57	1.050000e+00	3.000000e-01	-4.521811e-08	
58	1.100000e+00	3.000000e-01	-4.806041e-08	
59	1.150000e+00	3.000000e-01	-5.101907e-08	
60	1.200000e+00	3.000000e-01	-5.409791e-08	
61	1.250000e+00	3.000000e-01	-5.730096e-08	
62	1.300000e+00	3.000000e-01	-6.063263e-08	
63	1.350000e+00	3.000000e-01	-6.409805e-08	
64	1.400000e+00	3.000000e-01	-6.770382e-08	
65	1.450000e+00	3.000000e-01	-7.145933e-08	
66	1.500000e+00	3.000000e-01	-7.537928e-08	
67	1.550000e+00	3.000000e-01	-7.948779e-08	
68	1.600000e+00	3.000000e-01	-8.382525e-08	
69	1.650000e+00	3.000000e-01	-8.845900e-08	
70	1.700000e+00	3.000000e-01	-9.349948e-08	
71	1.750000e+00	3.000000e-01	-9.912389e-08	
72	0.000000e+00	6.000000e-01	1.314775e-17	
73	5.000000e-02	6.000000e-01	-8.300949e-06	
74	1.000000e-01	6.000000e-01	-1.138766e-05	
75	1.500000e-01	6.000000e-01	-1.300582e-05	
76	2.000000e-01	6.000000e-01	-1.441279e-05	
77	2.500000e-01	6.000000e-01	-1.581218e-05	
78	3.000000e-01	6.000000e-01	-1.724262e-05	
79	3.500000e-01	6.000000e-01	-1.871477e-05	
80	4.000000e-01	6.000000e-01	-2.023269e-05	
81	4.500000e-01	6.000000e-01	-2.179850e-05	
82	5.000000e-01	6.000000e-01	-2.341359e-05	
83	5.500000e-01	6.000000e-01	-2.507907e-05	
84	6.000000e-01	6.000000e-01	-2.679593e-05	
85	6.500000e-01	6.000000e-01	-2.856507e-05	
86	7.000000e-01	6.000000e-01	-3.038739e-05	
87	7.500000e-01	6.000000e-01	-3.226376e-05	
88	8.000000e-01	6.000000e-01	-3.419501e-05	
89	8.500000e-01	6.000000e-01	-3.618202e-05	
90	9.000000e-01	6.000000e-01	-3.822563e-05	
91	9.500000e-01	6.000000e-01	-4.032667e-05	
92	1.000000e+00	6.000000e-01	-4.248599e-05	
93	1.050000e+00	6.000000e-01	-4.470442e-05	
94	1.100000e+00	6.000000e-01	-4.698281e-05	
95	1.150000e+00	6.000000e-01	-4.932200e-05	
96	1.200000e+00	6.000000e-01	-5.172285e-05	
97	1.250000e+00	6.000000e-01	-5.418628e-05	
98	1.300000e+00	6.000000e-01	-5.671336e-05	
99	1.350000e+00	6.000000e-01	-5.930553e-05	
100	1.400000e+00	6.000000e-01	-6.196504e-05	
101	1.450000e+00	6.000000e-01	-6.469578e-05	
102	1.500000e+00	6.000000e-01	-6.750482e-05	
103	1.550000e+00	6.000000e-01	-7.040501e-05	
104	1.600000e+00	6.000000e-01	-7.341920e-05	
105	1.650000e+00	6.000000e-01	-7.658697e-05	
106	1.700000e+00	6.000000e-01	-7.997465e-05	
107	1.750000e+00	6.000000e-01	-8.368997e-05	
108	0.000000e+00	9.000000e-01	3.935117e-17	
109	5.000000e-02	9.000000e-01	-1.406737e-04	
110	1.000000e-01	9.000000e-01	-2.572735e-04	
111	1.500000e-01	9.000000e-01	-3.510370e-04	
112	2.000000e-01	9.000000e-01	-4.233798e-04	

Index   sweep           v(1)            vds#branch      
--------------------------------------------------------------------------------
113	2.500000e-01	9.000000e-01	-4.762855e-04	
114	3.000000e-01	9.000000e-01	-5.131014e-04	
115	3.500000e-01	9.000000e-01	-5.389114e-04	
116	4.000000e-01	9.000000e-01	-5.588478e-04	
117	4.500000e-01	9.000000e-01	-5.761542e-04	
118	5.000000e-01	9.000000e-01	-5.923382e-04	
119	5.500000e-01	9.000000e-01	-6.080388e-04	
120	6.000000e-01	9.000000e-01	-6.235364e-04	
121	6.500000e-01	9.000000e-01	-6.389638e-04	
122	7.000000e-01	9.000000e-01	-6.543889e-04	
123	7.500000e-01	9.000000e-01	-6.698488e-04	
124	8.000000e-01	9.000000e-01	-6.853649e-04	
125	8.500000e-01	9.000000e-01	-7.009498e-04	
126	9.000000e-01	9.000000e-01	-7.166112e-04	
127	9.500000e-01	9.000000e-01	-7.323540e-04	
128	1.000000e+00	9.000000e-01	-7.481808e-04	
129	1.050000e+00	9.000000e-01	-7.640933e-04	
130	1.100000e+00	9.000000e-01	-7.800923e-04	
131	1.150000e+00	9.000000e-01	-7.961779e-04	
132	1.200000e+00	9.000000e-01	-8.123499e-04	
133	1.250000e+00	9.000000e-01	-8.286078e-04	
134	1.300000e+00	9.000000e-01	-8.449509e-04	
135	1.350000e+00	9.000000e-01	-8.613783e-04	
136	1.400000e+00	9.000000e-01	-8.778893e-04	
137	1.450000e+00	9.000000e-01	-8.944833e-04	
138	1.500000e+00	9.000000e-01	-9.111606e-04	
139	1.550000e+00	9.000000e-01	-9.279243e-04	
140	1.600000e+00	9.000000e-01	-9.447827e-04	
141	1.650000e+00	9.000000e-01	-9.617563e-04	
142	1.700000e+00	9.000000e-01	-9.788881e-04	
143	1.750000e+00	9.000000e-01	-9.962641e-04	
144	0.000000e+00	1.200000e+00	7.768174e-17	
145	5.000000e-02	1.200000e+00	-2.121807e-04	
146	1.000000e-01	1.200000e+00	-4.032916e-04	
147	1.500000e-01	1.200000e+00	-5.739693e-04	
148	2.000000e-01	1.200000e+00	-7.248457e-04	
149	2.500000e-01	1.200000e+00	-8.565448e-04	
150	3.000000e-01	1.200000e+00	-9.696981e-04	
151	3.500000e-01	1.200000e+00	-1.064988e-03	
152	4.000000e-01	1.200000e+00	-1.143257e-03	
153	4.500000e-01	1.200000e+00	-1.205763e-03	
154	5.000000e-01	1.200000e+00	-1.254586e-03	
155	5.500000e-01	1.200000e+00	-1.292854e-03	
156	6.000000e-01	1.200000e+00	-1.324129e-03	
157	6.500000e-01	1.200000e+00	-1.351329e-03	
158	7.000000e-01	1.200000e+00	-1.376294e-03	
159	7.500000e-01	1.200000e+00	-1.400039e-03	
160	8.000000e-01	1.200000e+00	-1.423099e-03	
161	8.500000e-01	1.200000e+00	-1.445765e-03	
162	9.000000e-01	1.200000e+00	-1.468201e-03	
163	9.500000e-01	1.200000e+00	-1.490504e-03	
164	1.000000e+00	1.200000e+00	-1.512732e-03	
165	1.050000e+00	1.200000e+00	-1.534922e-03	
166	1.100000e+00	1.200000e+00	-1.557099e-03	
167	1.150000e+00	1.200000e+00	-1.579281e-03	
168	1.200000e+00	1.200000e+00	-1.601476e-03	
169	1.250000e+00	1.200000e+00	-1.623694e-03	
170	1.300000e+00	1.200000e+00	-1.645940e-03	

Index   sweep           v(1)            vds#branch      
--------------------------------------------------------------------------------
171	1.350000e+00	1.200000e+00	-1.668216e-03	
172	1.400000e+00	1.200000e+00	-1.690526e-03	
173	1.450000e+00	1.200000e+00	-1.712871e-03	
174	1.500000e+00	1.200000e+00	-1.735251e-03	
175	1.550000e+00	1.200000e+00	-1.757667e-03	
176	1.600000e+00	1.200000e+00	-1.780120e-03	
177	1.650000e+00	1.200000e+00	-1.802609e-03	
178	1.700000e+00	1.200000e+00	-1.825137e-03	
179	1.750000e+00	1.200000e+00	-1.847713e-03	
180	0.000000e+00	1.500000e+00	1.277867e-16	
181	5.000000e-02	1.500000e+00	-2.480825e-04	
182	1.000000e-01	1.500000e+00	-4.783088e-04	
183	1.500000e-01	1.500000e+00	-6.910798e-04	
184	2.000000e-01	1.500000e+00	-8.867979e-04	
185	2.500000e-01	1.500000e+00	-1.065858e-03	
186	3.000000e-01	1.500000e+00	-1.228645e-03	
187	3.500000e-01	1.500000e+00	-1.375536e-03	
188	4.000000e-01	1.500000e+00	-1.506902e-03	
189	4.500000e-01	1.500000e+00	-1.623120e-03	
190	5.000000e-01	1.500000e+00	-1.724587e-03	
191	5.500000e-01	1.500000e+00	-1.811784e-03	
192	6.000000e-01	1.500000e+00	-1.885388e-03	
193	6.500000e-01	1.500000e+00	-1.946493e-03	
194	7.000000e-01	1.500000e+00	-1.996858e-03	
195	7.500000e-01	1.500000e+00	-2.038888e-03	
196	8.000000e-01	1.500000e+00	-2.075144e-03	
197	8.500000e-01	1.500000e+00	-2.107735e-03	
198	9.000000e-01	1.500000e+00	-2.138095e-03	
199	9.500000e-01	1.500000e+00	-2.167098e-03	
200	1.000000e+00	1.500000e+00	-2.195258e-03	
201	1.050000e+00	1.500000e+00	-2.222880e-03	
202	1.100000e+00	1.500000e+00	-2.250148e-03	
203	1.150000e+00	1.500000e+00	-2.277177e-03	
204	1.200000e+00	1.500000e+00	-2.304040e-03	
205	1.250000e+00	1.500000e+00	-2.330787e-03	
206	1.300000e+00	1.500000e+00	-2.357451e-03	
207	1.350000e+00	1.500000e+00	-2.384054e-03	
208	1.400000e+00	1.500000e+00	-2.410614e-03	
209	1.450000e+00	1.500000e+00	-2.437142e-03	
210	1.500000e+00	1.500000e+00	-2.463645e-03	
211	1.550000e+00	1.500000e+00	-2.490131e-03	
212	1.600000e+00	1.500000e+00	-2.516602e-03	
213	1.650000e+00	1.500000e+00	-2.543063e-03	
214	1.700000e+00	1.500000e+00	-2.569515e-03	
215	1.750000e+00	1.500000e+00	-2.595959e-03	

CPU time since last call: 0.400 seconds.

Total CPU time: 0.400 seconds.

Current dynamic memory usage = 188416,
Dynamic memory limit = -18074808.

