
Circuit: ** NMOSFET: Benchmarking Implementation of BSIM4.1.0 by Weidong Liu 10/11/2000.

Circuit: ** NMOSFET: Benchmarking Implementation of BSIM4.1.0 by Weidong Liu 10/11/2000.
Date: Wed Oct 11 05:32:38  2000


** NMOSFET: Benchmarking Implementation of BSIM4.1.0 by Weidong Liu 10/11/2000.
DC transfer characteristic  Wed Oct 11 05:32:38  2000
--------------------------------------------------------------------------------
Index   sweep           v(2)            vds#branch      
--------------------------------------------------------------------------------
0	-6.000000e-01	1.000000e-01	-1.000172e-13	
1	-5.500000e-01	1.000000e-01	-1.000172e-13	
2	-5.000000e-01	1.000000e-01	-1.000103e-13	
3	-4.500000e-01	1.000000e-01	-9.999640e-14	
4	-4.000000e-01	1.000000e-01	-9.999640e-14	
5	-3.500000e-01	1.000000e-01	-9.999640e-14	
6	-3.000000e-01	1.000000e-01	-1.000103e-13	
7	-2.500000e-01	1.000000e-01	-1.000103e-13	
8	-2.000000e-01	1.000000e-01	-9.999640e-14	
9	-1.500000e-01	1.000000e-01	-9.999640e-14	
10	-1.000000e-01	1.000000e-01	-9.999640e-14	
11	-5.000000e-02	1.000000e-01	-1.000172e-13	
12	-6.938894e-17	1.000000e-01	-1.001629e-13	
13	5.000000e-02	1.000000e-01	-1.017936e-13	
14	1.000000e-01	1.000000e-01	-1.188841e-13	
15	1.500000e-01	1.000000e-01	-2.971512e-13	
16	2.000000e-01	1.000000e-01	-2.138074e-12	
17	2.500000e-01	1.000000e-01	-2.095812e-11	
18	3.000000e-01	1.000000e-01	-2.112589e-10	
19	3.500000e-01	1.000000e-01	-2.108749e-09	
20	4.000000e-01	1.000000e-01	-2.058580e-08	
21	4.500000e-01	1.000000e-01	-1.914132e-07	
22	5.000000e-01	1.000000e-01	-1.594071e-06	
23	5.500000e-01	1.000000e-01	-1.088874e-05	
24	6.000000e-01	1.000000e-01	-5.690851e-05	
25	6.500000e-01	1.000000e-01	-1.958652e-04	
26	7.000000e-01	1.000000e-01	-4.067023e-04	
27	7.500000e-01	1.000000e-01	-6.019726e-04	
28	8.000000e-01	1.000000e-01	-7.571511e-04	
29	8.500000e-01	1.000000e-01	-8.822757e-04	
30	9.000000e-01	1.000000e-01	-9.872393e-04	
31	9.500000e-01	1.000000e-01	-1.077715e-03	
32	1.000000e+00	1.000000e-01	-1.156931e-03	
33	1.050000e+00	1.000000e-01	-1.226942e-03	
34	1.100000e+00	1.000000e-01	-1.289219e-03	
35	1.150000e+00	1.000000e-01	-1.344899e-03	
36	1.200000e+00	1.000000e-01	-1.394895e-03	
37	1.250000e+00	1.000000e-01	-1.439964e-03	
38	1.300000e+00	1.000000e-01	-1.480733e-03	
39	1.350000e+00	1.000000e-01	-1.517732e-03	
40	1.400000e+00	1.000000e-01	-1.551408e-03	
41	1.450000e+00	1.000000e-01	-1.582144e-03	
42	1.500000e+00	1.000000e-01	-1.610266e-03	
43	1.550000e+00	1.000000e-01	-1.636056e-03	
44	1.600000e+00	1.000000e-01	-1.659757e-03	
45	1.650000e+00	1.000000e-01	-1.681580e-03	
46	1.700000e+00	1.000000e-01	-1.701710e-03	
47	1.750000e+00	1.000000e-01	-1.720309e-03	
48	-6.000000e-01	1.000000e-01	-4.000134e-13	
49	-5.500000e-01	1.000000e-01	-4.000064e-13	
50	-5.000000e-01	1.000000e-01	-4.000064e-13	
51	-4.500000e-01	1.000000e-01	-3.999925e-13	
52	-4.000000e-01	1.000000e-01	-3.999925e-13	
53	-3.500000e-01	1.000000e-01	-3.999925e-13	
54	-3.000000e-01	1.000000e-01	-4.000064e-13	

Index   sweep           v(2)            vds#branch      
--------------------------------------------------------------------------------
55	-2.500000e-01	1.000000e-01	-4.000064e-13	
56	-2.000000e-01	1.000000e-01	-3.999925e-13	
57	-1.500000e-01	1.000000e-01	-3.999925e-13	
58	-1.000000e-01	1.000000e-01	-3.999925e-13	
59	-5.000000e-02	1.000000e-01	-4.000064e-13	
60	-6.938894e-17	1.000000e-01	-4.000272e-13	
61	5.000000e-02	1.000000e-01	-4.003325e-13	
62	1.000000e-01	1.000000e-01	-4.035938e-13	
63	1.500000e-01	1.000000e-01	-4.389822e-13	
64	2.000000e-01	1.000000e-01	-8.180054e-13	
65	2.500000e-01	1.000000e-01	-4.838081e-12	
66	3.000000e-01	1.000000e-01	-4.703626e-11	
67	3.500000e-01	1.000000e-01	-4.848214e-10	
68	4.000000e-01	1.000000e-01	-4.952507e-09	
69	4.500000e-01	1.000000e-01	-4.913974e-08	
70	5.000000e-01	1.000000e-01	-4.554162e-07	
71	5.500000e-01	1.000000e-01	-3.639571e-06	
72	6.000000e-01	1.000000e-01	-2.298234e-05	
73	6.500000e-01	1.000000e-01	-1.044266e-04	
74	7.000000e-01	1.000000e-01	-2.874943e-04	
75	7.500000e-01	1.000000e-01	-5.002994e-04	
76	8.000000e-01	1.000000e-01	-6.774006e-04	
77	8.500000e-01	1.000000e-01	-8.176256e-04	
78	9.000000e-01	1.000000e-01	-9.328100e-04	
79	9.500000e-01	1.000000e-01	-1.030783e-03	
80	1.000000e+00	1.000000e-01	-1.115880e-03	
81	1.050000e+00	1.000000e-01	-1.190684e-03	
82	1.100000e+00	1.000000e-01	-1.256953e-03	
83	1.150000e+00	1.000000e-01	-1.315998e-03	
84	1.200000e+00	1.000000e-01	-1.368855e-03	
85	1.250000e+00	1.000000e-01	-1.416370e-03	
86	1.300000e+00	1.000000e-01	-1.459244e-03	
87	1.350000e+00	1.000000e-01	-1.498062e-03	
88	1.400000e+00	1.000000e-01	-1.533320e-03	
89	1.450000e+00	1.000000e-01	-1.565437e-03	
90	1.500000e+00	1.000000e-01	-1.594769e-03	
91	1.550000e+00	1.000000e-01	-1.621624e-03	
92	1.600000e+00	1.000000e-01	-1.646265e-03	
93	1.650000e+00	1.000000e-01	-1.668922e-03	
94	1.700000e+00	1.000000e-01	-1.689795e-03	
95	1.750000e+00	1.000000e-01	-1.709055e-03	
96	-6.000000e-01	1.000000e-01	-7.000234e-13	
97	-5.500000e-01	1.000000e-01	-7.000234e-13	
98	-5.000000e-01	1.000000e-01	-7.000164e-13	
99	-4.500000e-01	1.000000e-01	-7.000026e-13	
100	-4.000000e-01	1.000000e-01	-7.000026e-13	
101	-3.500000e-01	1.000000e-01	-7.000026e-13	
102	-3.000000e-01	1.000000e-01	-7.000164e-13	
103	-2.500000e-01	1.000000e-01	-7.000164e-13	
104	-2.000000e-01	1.000000e-01	-7.000026e-13	
105	-1.500000e-01	1.000000e-01	-7.000026e-13	
106	-1.000000e-01	1.000000e-01	-7.000026e-13	
107	-5.000000e-02	1.000000e-01	-7.000026e-13	
108	-6.938894e-17	1.000000e-01	-7.000095e-13	
109	5.000000e-02	1.000000e-01	-7.000928e-13	
110	1.000000e-01	1.000000e-01	-7.009324e-13	
111	1.500000e-01	1.000000e-01	-7.103623e-13	
112	2.000000e-01	1.000000e-01	-8.138282e-13	

Index   sweep           v(2)            vds#branch      
--------------------------------------------------------------------------------
113	2.500000e-01	1.000000e-01	-1.938526e-12	
114	3.000000e-01	1.000000e-01	-1.404007e-11	
115	3.500000e-01	1.000000e-01	-1.428505e-10	
116	4.000000e-01	1.000000e-01	-1.495752e-09	
117	4.500000e-01	1.000000e-01	-1.540009e-08	
118	5.000000e-01	1.000000e-01	-1.517171e-07	
119	5.500000e-01	1.000000e-01	-1.347012e-06	
120	6.000000e-01	1.000000e-01	-9.797396e-06	
121	6.500000e-01	1.000000e-01	-5.381206e-05	
122	7.000000e-01	1.000000e-01	-1.919315e-04	
123	7.500000e-01	1.000000e-01	-4.049761e-04	
124	8.000000e-01	1.000000e-01	-6.020024e-04	
125	8.500000e-01	1.000000e-01	-7.580000e-04	
126	9.000000e-01	1.000000e-01	-8.835909e-04	
127	9.500000e-01	1.000000e-01	-9.888560e-04	
128	1.000000e+00	1.000000e-01	-1.079488e-03	
129	1.050000e+00	1.000000e-01	-1.158728e-03	
130	1.100000e+00	1.000000e-01	-1.228654e-03	
131	1.150000e+00	1.000000e-01	-1.290760e-03	
132	1.200000e+00	1.000000e-01	-1.346207e-03	
133	1.250000e+00	1.000000e-01	-1.395930e-03	
134	1.300000e+00	1.000000e-01	-1.440697e-03	
135	1.350000e+00	1.000000e-01	-1.481147e-03	
136	1.400000e+00	1.000000e-01	-1.517819e-03	
137	1.450000e+00	1.000000e-01	-1.551166e-03	
138	1.500000e+00	1.000000e-01	-1.581575e-03	
139	1.550000e+00	1.000000e-01	-1.609375e-03	
140	1.600000e+00	1.000000e-01	-1.634850e-03	
141	1.650000e+00	1.000000e-01	-1.658244e-03	
142	1.700000e+00	1.000000e-01	-1.679771e-03	
143	1.750000e+00	1.000000e-01	-1.699614e-03	
144	-6.000000e-01	1.000000e-01	-1.000020e-12	
145	-5.500000e-01	1.000000e-01	-1.000013e-12	
146	-5.000000e-01	1.000000e-01	-1.000013e-12	
147	-4.500000e-01	1.000000e-01	-9.999987e-13	
148	-4.000000e-01	1.000000e-01	-9.999987e-13	
149	-3.500000e-01	1.000000e-01	-9.999987e-13	
150	-3.000000e-01	1.000000e-01	-1.000013e-12	
151	-2.500000e-01	1.000000e-01	-1.000013e-12	
152	-2.000000e-01	1.000000e-01	-9.999987e-13	
153	-1.500000e-01	1.000000e-01	-9.999987e-13	
154	-1.000000e-01	1.000000e-01	-9.999987e-13	
155	-5.000000e-02	1.000000e-01	-9.999987e-13	
156	-6.938894e-17	1.000000e-01	-9.999987e-13	
157	5.000000e-02	1.000000e-01	-1.000026e-12	
158	1.000000e-01	1.000000e-01	-1.000290e-12	
159	1.500000e-01	1.000000e-01	-1.003385e-12	
160	2.000000e-01	1.000000e-01	-1.037857e-12	
161	2.500000e-01	1.000000e-01	-1.419295e-12	
162	3.000000e-01	1.000000e-01	-5.597321e-12	
163	3.500000e-01	1.000000e-01	-5.088696e-11	
164	4.000000e-01	1.000000e-01	-5.360410e-10	
165	4.500000e-01	1.000000e-01	-5.646188e-09	
166	5.000000e-01	1.000000e-01	-5.773044e-08	
167	5.500000e-01	1.000000e-01	-5.487254e-07	
168	6.000000e-01	1.000000e-01	-4.447971e-06	
169	6.500000e-01	1.000000e-01	-2.802086e-05	
170	7.000000e-01	1.000000e-01	-1.229248e-04	

Index   sweep           v(2)            vds#branch      
--------------------------------------------------------------------------------
171	7.500000e-01	1.000000e-01	-3.183327e-04	
172	8.000000e-01	1.000000e-01	-5.299480e-04	
173	8.500000e-01	1.000000e-01	-7.019580e-04	
174	9.000000e-01	1.000000e-01	-8.382875e-04	
175	9.500000e-01	1.000000e-01	-9.507825e-04	
176	1.000000e+00	1.000000e-01	-1.046724e-03	
177	1.050000e+00	1.000000e-01	-1.130127e-03	
178	1.100000e+00	1.000000e-01	-1.203447e-03	
179	1.150000e+00	1.000000e-01	-1.268377e-03	
180	1.200000e+00	1.000000e-01	-1.326203e-03	
181	1.250000e+00	1.000000e-01	-1.377943e-03	
182	1.300000e+00	1.000000e-01	-1.424435e-03	
183	1.350000e+00	1.000000e-01	-1.466369e-03	
184	1.400000e+00	1.000000e-01	-1.504323e-03	
185	1.450000e+00	1.000000e-01	-1.538783e-03	
186	1.500000e+00	1.000000e-01	-1.570163e-03	
187	1.550000e+00	1.000000e-01	-1.598814e-03	
188	1.600000e+00	1.000000e-01	-1.625037e-03	
189	1.650000e+00	1.000000e-01	-1.649093e-03	
190	1.700000e+00	1.000000e-01	-1.671206e-03	
191	1.750000e+00	1.000000e-01	-1.691570e-03	
192	-6.000000e-01	1.000000e-01	-1.300016e-12	
193	-5.500000e-01	1.000000e-01	-1.300009e-12	
194	-5.000000e-01	1.000000e-01	-1.300009e-12	
195	-4.500000e-01	1.000000e-01	-1.300002e-12	
196	-4.000000e-01	1.000000e-01	-1.300002e-12	
197	-3.500000e-01	1.000000e-01	-1.300002e-12	
198	-3.000000e-01	1.000000e-01	-1.300009e-12	
199	-2.500000e-01	1.000000e-01	-1.300009e-12	
200	-2.000000e-01	1.000000e-01	-1.300002e-12	
201	-1.500000e-01	1.000000e-01	-1.300002e-12	
202	-1.000000e-01	1.000000e-01	-1.300002e-12	
203	-5.000000e-02	1.000000e-01	-1.300002e-12	
204	-6.938894e-17	1.000000e-01	-1.300002e-12	
205	5.000000e-02	1.000000e-01	-1.300009e-12	
206	1.000000e-01	1.000000e-01	-1.300113e-12	
207	1.500000e-01	1.000000e-01	-1.301285e-12	
208	2.000000e-01	1.000000e-01	-1.314657e-12	
209	2.500000e-01	1.000000e-01	-1.464592e-12	
210	3.000000e-01	1.000000e-01	-3.129240e-12	
211	3.500000e-01	1.000000e-01	-2.142343e-11	
212	4.000000e-01	1.000000e-01	-2.202597e-10	
213	4.500000e-01	1.000000e-01	-2.350795e-09	
214	5.000000e-01	1.000000e-01	-2.462173e-08	
215	5.500000e-01	1.000000e-01	-2.446826e-07	
216	6.000000e-01	1.000000e-01	-2.149121e-06	
217	6.500000e-01	1.000000e-01	-1.508670e-05	
218	7.000000e-01	1.000000e-01	-7.729653e-05	
219	7.500000e-01	1.000000e-01	-2.434522e-04	
220	8.000000e-01	1.000000e-01	-4.613683e-04	
221	8.500000e-01	1.000000e-01	-6.487612e-04	
222	9.000000e-01	1.000000e-01	-7.961395e-04	
223	9.500000e-01	1.000000e-01	-9.158883e-04	
224	1.000000e+00	1.000000e-01	-1.016971e-03	
225	1.050000e+00	1.000000e-01	-1.104319e-03	
226	1.100000e+00	1.000000e-01	-1.180813e-03	
227	1.150000e+00	1.000000e-01	-1.248364e-03	
228	1.200000e+00	1.000000e-01	-1.308386e-03	

Index   sweep           v(2)            vds#branch      
--------------------------------------------------------------------------------
229	1.250000e+00	1.000000e-01	-1.361986e-03	
230	1.300000e+00	1.000000e-01	-1.410062e-03	
231	1.350000e+00	1.000000e-01	-1.453353e-03	
232	1.400000e+00	1.000000e-01	-1.492477e-03	
233	1.450000e+00	1.000000e-01	-1.527951e-03	
234	1.500000e+00	1.000000e-01	-1.560214e-03	
235	1.550000e+00	1.000000e-01	-1.589637e-03	
236	1.600000e+00	1.000000e-01	-1.616538e-03	
237	1.650000e+00	1.000000e-01	-1.641191e-03	
238	1.700000e+00	1.000000e-01	-1.663832e-03	
239	1.750000e+00	1.000000e-01	-1.684667e-03	
240	-6.000000e-01	1.000000e-01	-1.600019e-12	
241	-5.500000e-01	1.000000e-01	-1.600005e-12	
242	-5.000000e-01	1.000000e-01	-1.599998e-12	
243	-4.500000e-01	1.000000e-01	-1.599998e-12	
244	-4.000000e-01	1.000000e-01	-1.599998e-12	
245	-3.500000e-01	1.000000e-01	-1.599998e-12	
246	-3.000000e-01	1.000000e-01	-1.599998e-12	
247	-2.500000e-01	1.000000e-01	-1.599998e-12	
248	-2.000000e-01	1.000000e-01	-1.599998e-12	
249	-1.500000e-01	1.000000e-01	-1.599998e-12	
250	-1.000000e-01	1.000000e-01	-1.599998e-12	
251	-5.000000e-02	1.000000e-01	-1.599998e-12	
252	-6.938894e-17	1.000000e-01	-1.599998e-12	
253	5.000000e-02	1.000000e-01	-1.599998e-12	
254	1.000000e-01	1.000000e-01	-1.600040e-12	
255	1.500000e-01	1.000000e-01	-1.600560e-12	
256	2.000000e-01	1.000000e-01	-1.606416e-12	
257	2.500000e-01	1.000000e-01	-1.672780e-12	
258	3.000000e-01	1.000000e-01	-2.417462e-12	
259	3.500000e-01	1.000000e-01	-1.069000e-11	
260	4.000000e-01	1.000000e-01	-1.016146e-10	
261	4.500000e-01	1.000000e-01	-1.088318e-09	
262	5.000000e-01	1.000000e-01	-1.158496e-08	
263	5.500000e-01	1.000000e-01	-1.186226e-07	
264	6.000000e-01	1.000000e-01	-1.104043e-06	
265	6.500000e-01	1.000000e-01	-8.463585e-06	
266	7.000000e-01	1.000000e-01	-4.876405e-05	
267	7.500000e-01	1.000000e-01	-1.823228e-04	
268	8.000000e-01	1.000000e-01	-3.970984e-04	
269	8.500000e-01	1.000000e-01	-5.980988e-04	
270	9.000000e-01	1.000000e-01	-7.566976e-04	
271	9.500000e-01	1.000000e-01	-8.837458e-04	
272	1.000000e+00	1.000000e-01	-9.898434e-04	
273	1.050000e+00	1.000000e-01	-1.080944e-03	
274	1.100000e+00	1.000000e-01	-1.160416e-03	
275	1.150000e+00	1.000000e-01	-1.230409e-03	
276	1.200000e+00	1.000000e-01	-1.292466e-03	
277	1.250000e+00	1.000000e-01	-1.347781e-03	
278	1.300000e+00	1.000000e-01	-1.397315e-03	
279	1.350000e+00	1.000000e-01	-1.441852e-03	
280	1.400000e+00	1.000000e-01	-1.482048e-03	
281	1.450000e+00	1.000000e-01	-1.518449e-03	
282	1.500000e+00	1.000000e-01	-1.551516e-03	
283	1.550000e+00	1.000000e-01	-1.581641e-03	
284	1.600000e+00	1.000000e-01	-1.609158e-03	
285	1.650000e+00	1.000000e-01	-1.634353e-03	
286	1.700000e+00	1.000000e-01	-1.657473e-03	

Index   sweep           v(2)            vds#branch      
--------------------------------------------------------------------------------
287	1.750000e+00	1.000000e-01	-1.678731e-03	

CPU time since last call: 0.460 seconds.

Total CPU time: 0.460 seconds.

Current dynamic memory usage = 196608,
Dynamic memory limit = -18074808.

