
No. of Data Rows : 343

Circuit: ** NMOSFET: Benchmarking Implementation of BSIM4.1.0 by Weidong Liu 10/11/2000.

Doing analysis at TEMP = 373.150000 and TNOM = 300.150000
Warning: This model is BSIM4.2.1; you specified a wrong version number.
** NMOSFET: Benchmarking Implementation of BSIM4.1.0 by Weidong Liu 10/11/2000.
--------------------------------------------------------------------------------
Index   v-sweep         v(2)            vds#branch      
--------------------------------------------------------------------------------
0	-6.000000e-01	1.000000e-01	-8.862897e-11	
1	-5.500000e-01	1.000000e-01	-8.862897e-11	
2	-5.000000e-01	1.000000e-01	-8.862898e-11	
3	-4.500000e-01	1.000000e-01	-8.862898e-11	
4	-4.000000e-01	1.000000e-01	-8.862900e-11	
5	-3.500000e-01	1.000000e-01	-8.862912e-11	
6	-3.000000e-01	1.000000e-01	-8.862959e-11	
7	-2.500000e-01	1.000000e-01	-8.863144e-11	
8	-2.000000e-01	1.000000e-01	-8.863881e-11	
9	-1.500000e-01	1.000000e-01	-8.866802e-11	
10	-1.000000e-01	1.000000e-01	-8.878400e-11	
11	-5.000000e-02	1.000000e-01	-8.924441e-11	
12	-6.938894e-17	1.000000e-01	-9.107176e-11	
13	5.000000e-02	1.000000e-01	-9.832248e-11	
14	1.000000e-01	1.000000e-01	-1.270075e-10	
15	1.500000e-01	1.000000e-01	-2.395713e-10	
16	2.000000e-01	1.000000e-01	-6.777450e-10	
17	2.500000e-01	1.000000e-01	-2.366195e-09	
18	3.000000e-01	1.000000e-01	-8.780198e-09	
19	3.500000e-01	1.000000e-01	-3.261874e-08	
20	4.000000e-01	1.000000e-01	-1.182088e-07	
21	4.500000e-01	1.000000e-01	-4.097573e-07	
22	5.000000e-01	1.000000e-01	-1.334680e-06	
23	5.500000e-01	1.000000e-01	-4.045208e-06	
24	6.000000e-01	1.000000e-01	-1.138766e-05	
25	6.500000e-01	1.000000e-01	-2.917739e-05	
26	7.000000e-01	1.000000e-01	-6.387908e-05	
27	7.500000e-01	1.000000e-01	-1.134781e-04	
28	8.000000e-01	1.000000e-01	-1.671334e-04	
29	8.500000e-01	1.000000e-01	-2.160167e-04	
30	9.000000e-01	1.000000e-01	-2.572735e-04	
31	9.500000e-01	1.000000e-01	-2.915340e-04	
32	1.000000e+00	1.000000e-01	-3.203461e-04	
33	1.050000e+00	1.000000e-01	-3.450892e-04	
34	1.100000e+00	1.000000e-01	-3.667545e-04	
35	1.150000e+00	1.000000e-01	-3.860071e-04	
36	1.200000e+00	1.000000e-01	-4.032916e-04	
37	1.250000e+00	1.000000e-01	-4.189138e-04	
38	1.300000e+00	1.000000e-01	-4.330942e-04	
39	1.350000e+00	1.000000e-01	-4.460007e-04	
40	1.400000e+00	1.000000e-01	-4.577671e-04	
41	1.450000e+00	1.000000e-01	-4.685048e-04	
42	1.500000e+00	1.000000e-01	-4.783088e-04	
43	1.550000e+00	1.000000e-01	-4.872623e-04	
44	1.600000e+00	1.000000e-01	-4.954385e-04	
45	1.650000e+00	1.000000e-01	-5.029030e-04	
46	1.700000e+00	1.000000e-01	-5.097146e-04	
47	1.750000e+00	1.000000e-01	-5.159264e-04	
48	1.800000e+00	1.000000e-01	-5.215864e-04	
49	-6.000000e-01	1.000000e-01	-9.306153e-11	
50	-5.500000e-01	1.000000e-01	-9.306153e-11	
51	-5.000000e-01	1.000000e-01	-9.306154e-11	
52	-4.500000e-01	1.000000e-01	-9.306154e-11	
53	-4.000000e-01	1.000000e-01	-9.306155e-11	
54	-3.500000e-01	1.000000e-01	-9.306160e-11	

Index   v-sweep         v(2)            vds#branch      
--------------------------------------------------------------------------------
55	-3.000000e-01	1.000000e-01	-9.306176e-11	
56	-2.500000e-01	1.000000e-01	-9.306242e-11	
57	-2.000000e-01	1.000000e-01	-9.306510e-11	
58	-1.500000e-01	1.000000e-01	-9.307602e-11	
59	-1.000000e-01	1.000000e-01	-9.312029e-11	
60	-5.000000e-02	1.000000e-01	-9.329989e-11	
61	-6.938894e-17	1.000000e-01	-9.402834e-11	
62	5.000000e-02	1.000000e-01	-9.698234e-11	
63	1.000000e-01	1.000000e-01	-1.089282e-10	
64	1.500000e-01	1.000000e-01	-1.568615e-10	
65	2.000000e-01	1.000000e-01	-3.477797e-10	
66	2.500000e-01	1.000000e-01	-1.101546e-09	
67	3.000000e-01	1.000000e-01	-4.042850e-09	
68	3.500000e-01	1.000000e-01	-1.532364e-08	
69	4.000000e-01	1.000000e-01	-5.742622e-08	
70	4.500000e-01	1.000000e-01	-2.079320e-07	
71	5.000000e-01	1.000000e-01	-7.129407e-07	
72	5.500000e-01	1.000000e-01	-2.278331e-06	
73	6.000000e-01	1.000000e-01	-6.749697e-06	
74	6.500000e-01	1.000000e-01	-1.840185e-05	
75	7.000000e-01	1.000000e-01	-4.412485e-05	
76	7.500000e-01	1.000000e-01	-8.677523e-05	
77	8.000000e-01	1.000000e-01	-1.384578e-04	
78	8.500000e-01	1.000000e-01	-1.885660e-04	
79	9.000000e-01	1.000000e-01	-2.318957e-04	
80	9.500000e-01	1.000000e-01	-2.679957e-04	
81	1.000000e+00	1.000000e-01	-2.982016e-04	
82	1.050000e+00	1.000000e-01	-3.239762e-04	
83	1.100000e+00	1.000000e-01	-3.464319e-04	
84	1.150000e+00	1.000000e-01	-3.663250e-04	
85	1.200000e+00	1.000000e-01	-3.841570e-04	
86	1.250000e+00	1.000000e-01	-4.002674e-04	
87	1.300000e+00	1.000000e-01	-4.148955e-04	
88	1.350000e+00	1.000000e-01	-4.282200e-04	
89	1.400000e+00	1.000000e-01	-4.403811e-04	
90	1.450000e+00	1.000000e-01	-4.514940e-04	
91	1.500000e+00	1.000000e-01	-4.616560e-04	
92	1.550000e+00	1.000000e-01	-4.709521e-04	
93	1.600000e+00	1.000000e-01	-4.794569e-04	
94	1.650000e+00	1.000000e-01	-4.872370e-04	
95	1.700000e+00	1.000000e-01	-4.943521e-04	
96	1.750000e+00	1.000000e-01	-5.008560e-04	
97	1.800000e+00	1.000000e-01	-5.067976e-04	
98	-6.000000e-01	1.000000e-01	-9.336192e-11	
99	-5.500000e-01	1.000000e-01	-9.336192e-11	
100	-5.000000e-01	1.000000e-01	-9.336192e-11	
101	-4.500000e-01	1.000000e-01	-9.336191e-11	
102	-4.000000e-01	1.000000e-01	-9.336191e-11	
103	-3.500000e-01	1.000000e-01	-9.336194e-11	
104	-3.000000e-01	1.000000e-01	-9.336200e-11	
105	-2.500000e-01	1.000000e-01	-9.336230e-11	
106	-2.000000e-01	1.000000e-01	-9.336353e-11	
107	-1.500000e-01	1.000000e-01	-9.336857e-11	
108	-1.000000e-01	1.000000e-01	-9.338934e-11	
109	-5.000000e-02	1.000000e-01	-9.347485e-11	
110	-6.938894e-17	1.000000e-01	-9.382669e-11	
111	5.000000e-02	1.000000e-01	-9.527441e-11	
112	1.000000e-01	1.000000e-01	-1.012154e-10	

Index   v-sweep         v(2)            vds#branch      
--------------------------------------------------------------------------------
113	1.500000e-01	1.000000e-01	-1.254096e-10	
114	2.000000e-01	1.000000e-01	-2.232495e-10	
115	2.500000e-01	1.000000e-01	-6.157445e-10	
116	3.000000e-01	1.000000e-01	-2.174314e-09	
117	3.500000e-01	1.000000e-01	-8.274559e-09	
118	4.000000e-01	1.000000e-01	-3.162328e-08	
119	4.500000e-01	1.000000e-01	-1.178464e-07	
120	5.000000e-01	1.000000e-01	-4.191511e-07	
121	5.500000e-01	1.000000e-01	-1.395839e-06	
122	6.000000e-01	1.000000e-01	-4.306534e-06	
123	6.500000e-01	1.000000e-01	-1.226607e-05	
124	7.000000e-01	1.000000e-01	-3.136770e-05	
125	7.500000e-01	1.000000e-01	-6.715313e-05	
126	8.000000e-01	1.000000e-01	-1.156304e-04	
127	8.500000e-01	1.000000e-01	-1.659977e-04	
128	9.000000e-01	1.000000e-01	-2.109421e-04	
129	9.500000e-01	1.000000e-01	-2.486877e-04	
130	1.000000e+00	1.000000e-01	-2.801810e-04	
131	1.050000e+00	1.000000e-01	-3.068995e-04	
132	1.100000e+00	1.000000e-01	-3.300585e-04	
133	1.150000e+00	1.000000e-01	-3.505032e-04	
134	1.200000e+00	1.000000e-01	-3.687939e-04	
135	1.250000e+00	1.000000e-01	-3.853049e-04	
136	1.300000e+00	1.000000e-01	-4.002958e-04	
137	1.350000e+00	1.000000e-01	-4.139565e-04	
138	1.400000e+00	1.000000e-01	-4.264336e-04	
139	1.450000e+00	1.000000e-01	-4.378460e-04	
140	1.500000e+00	1.000000e-01	-4.482938e-04	
141	1.550000e+00	1.000000e-01	-4.578632e-04	
142	1.600000e+00	1.000000e-01	-4.666300e-04	
143	1.650000e+00	1.000000e-01	-4.746619e-04	
144	1.700000e+00	1.000000e-01	-4.820191e-04	
145	1.750000e+00	1.000000e-01	-4.887562e-04	
146	1.800000e+00	1.000000e-01	-4.949224e-04	
147	-6.000000e-01	1.000000e-01	-9.366191e-11	
148	-5.500000e-01	1.000000e-01	-9.366191e-11	
149	-5.000000e-01	1.000000e-01	-9.366191e-11	
150	-4.500000e-01	1.000000e-01	-9.366191e-11	
151	-4.000000e-01	1.000000e-01	-9.366191e-11	
152	-3.500000e-01	1.000000e-01	-9.366192e-11	
153	-3.000000e-01	1.000000e-01	-9.366196e-11	
154	-2.500000e-01	1.000000e-01	-9.366211e-11	
155	-2.000000e-01	1.000000e-01	-9.366275e-11	
156	-1.500000e-01	1.000000e-01	-9.366545e-11	
157	-1.000000e-01	1.000000e-01	-9.367668e-11	
158	-5.000000e-02	1.000000e-01	-9.372336e-11	
159	-6.938894e-17	1.000000e-01	-9.391748e-11	
160	5.000000e-02	1.000000e-01	-9.472468e-11	
161	1.000000e-01	1.000000e-01	-9.807244e-11	
162	1.500000e-01	1.000000e-01	-1.118525e-10	
163	2.000000e-01	1.000000e-01	-1.681895e-10	
164	2.500000e-01	1.000000e-01	-3.967791e-10	
165	3.000000e-01	1.000000e-01	-1.315769e-09	
166	3.500000e-01	1.000000e-01	-4.964149e-09	
167	4.000000e-01	1.000000e-01	-1.917552e-08	
168	4.500000e-01	1.000000e-01	-7.287390e-08	
169	5.000000e-01	1.000000e-01	-2.662297e-07	
170	5.500000e-01	1.000000e-01	-9.157017e-07	

Index   v-sweep         v(2)            vds#branch      
--------------------------------------------------------------------------------
171	6.000000e-01	1.000000e-01	-2.921530e-06	
172	6.500000e-01	1.000000e-01	-8.607067e-06	
173	7.000000e-01	1.000000e-01	-2.304803e-05	
174	7.500000e-01	1.000000e-01	-5.279790e-05	
175	8.000000e-01	1.000000e-01	-9.744022e-05	
176	8.500000e-01	1.000000e-01	-1.472519e-04	
177	9.000000e-01	1.000000e-01	-1.933385e-04	
178	9.500000e-01	1.000000e-01	-2.325093e-04	
179	1.000000e+00	1.000000e-01	-2.651752e-04	
180	1.050000e+00	1.000000e-01	-2.927566e-04	
181	1.100000e+00	1.000000e-01	-3.165474e-04	
182	1.150000e+00	1.000000e-01	-3.374752e-04	
183	1.200000e+00	1.000000e-01	-3.561579e-04	
184	1.250000e+00	1.000000e-01	-3.730049e-04	
185	1.300000e+00	1.000000e-01	-3.882961e-04	
186	1.350000e+00	1.000000e-01	-4.022330e-04	
187	1.400000e+00	1.000000e-01	-4.149687e-04	
188	1.450000e+00	1.000000e-01	-4.266259e-04	
189	1.500000e+00	1.000000e-01	-4.373067e-04	
190	1.550000e+00	1.000000e-01	-4.470991e-04	
191	1.600000e+00	1.000000e-01	-4.560797e-04	
192	1.650000e+00	1.000000e-01	-4.643169e-04	
193	1.700000e+00	1.000000e-01	-4.718717e-04	
194	1.750000e+00	1.000000e-01	-4.787991e-04	
195	1.800000e+00	1.000000e-01	-4.851489e-04	
196	-6.000000e-01	1.000000e-01	-9.396192e-11	
197	-5.500000e-01	1.000000e-01	-9.396191e-11	
198	-5.000000e-01	1.000000e-01	-9.396191e-11	
199	-4.500000e-01	1.000000e-01	-9.396191e-11	
200	-4.000000e-01	1.000000e-01	-9.396192e-11	
201	-3.500000e-01	1.000000e-01	-9.396191e-11	
202	-3.000000e-01	1.000000e-01	-9.396193e-11	
203	-2.500000e-01	1.000000e-01	-9.396202e-11	
204	-2.000000e-01	1.000000e-01	-9.396240e-11	
205	-1.500000e-01	1.000000e-01	-9.396401e-11	
206	-1.000000e-01	1.000000e-01	-9.397074e-11	
207	-5.000000e-02	1.000000e-01	-9.399897e-11	
208	-6.938894e-17	1.000000e-01	-9.411734e-11	
209	5.000000e-02	1.000000e-01	-9.461347e-11	
210	1.000000e-01	1.000000e-01	-9.668775e-11	
211	1.500000e-01	1.000000e-01	-1.052955e-10	
212	2.000000e-01	1.000000e-01	-1.407784e-10	
213	2.500000e-01	1.000000e-01	-2.859909e-10	
214	3.000000e-01	1.000000e-01	-8.751869e-10	
215	3.500000e-01	1.000000e-01	-3.238919e-09	
216	4.000000e-01	1.000000e-01	-1.256509e-08	
217	4.500000e-01	1.000000e-01	-4.840193e-08	
218	5.000000e-01	1.000000e-01	-1.803823e-07	
219	5.500000e-01	1.000000e-01	-6.363995e-07	
220	6.000000e-01	1.000000e-01	-2.087914e-06	
221	6.500000e-01	1.000000e-01	-6.323625e-06	
222	7.000000e-01	1.000000e-01	-1.752175e-05	
223	7.500000e-01	1.000000e-01	-4.230853e-05	
224	8.000000e-01	1.000000e-01	-8.298305e-05	
225	8.500000e-01	1.000000e-01	-1.316419e-04	
226	9.000000e-01	1.000000e-01	-1.784346e-04	
227	9.500000e-01	1.000000e-01	-2.188031e-04	
228	1.000000e+00	1.000000e-01	-2.525216e-04	

Index   v-sweep         v(2)            vds#branch      
--------------------------------------------------------------------------------
229	1.050000e+00	1.000000e-01	-2.808877e-04	
230	1.100000e+00	1.000000e-01	-3.052471e-04	
231	1.150000e+00	1.000000e-01	-3.266010e-04	
232	1.200000e+00	1.000000e-01	-3.456221e-04	
233	1.250000e+00	1.000000e-01	-3.627541e-04	
234	1.300000e+00	1.000000e-01	-3.782971e-04	
235	1.350000e+00	1.000000e-01	-3.924638e-04	
236	1.400000e+00	1.000000e-01	-4.054137e-04	
237	1.450000e+00	1.000000e-01	-4.172731e-04	
238	1.500000e+00	1.000000e-01	-4.281465e-04	
239	1.550000e+00	1.000000e-01	-4.381228e-04	
240	1.600000e+00	1.000000e-01	-4.472800e-04	
241	1.650000e+00	1.000000e-01	-4.556868e-04	
242	1.700000e+00	1.000000e-01	-4.634048e-04	
243	1.750000e+00	1.000000e-01	-4.704896e-04	
244	1.800000e+00	1.000000e-01	-4.769911e-04	
245	-6.000000e-01	1.000000e-01	-9.426192e-11	
246	-5.500000e-01	1.000000e-01	-9.426191e-11	
247	-5.000000e-01	1.000000e-01	-9.426191e-11	
248	-4.500000e-01	1.000000e-01	-9.426191e-11	
249	-4.000000e-01	1.000000e-01	-9.426191e-11	
250	-3.500000e-01	1.000000e-01	-9.426191e-11	
251	-3.000000e-01	1.000000e-01	-9.426192e-11	
252	-2.500000e-01	1.000000e-01	-9.426198e-11	
253	-2.000000e-01	1.000000e-01	-9.426222e-11	
254	-1.500000e-01	1.000000e-01	-9.426327e-11	
255	-1.000000e-01	1.000000e-01	-9.426765e-11	
256	-5.000000e-02	1.000000e-01	-9.428616e-11	
257	-6.938894e-17	1.000000e-01	-9.436429e-11	
258	5.000000e-02	1.000000e-01	-9.469380e-11	
259	1.000000e-01	1.000000e-01	-9.608025e-11	
260	1.500000e-01	1.000000e-01	-1.018706e-10	
261	2.000000e-01	1.000000e-01	-1.258948e-10	
262	2.500000e-01	1.000000e-01	-2.248734e-10	
263	3.000000e-01	1.000000e-01	-6.293544e-10	
264	3.500000e-01	1.000000e-01	-2.265131e-09	
265	4.000000e-01	1.000000e-01	-8.782163e-09	
266	4.500000e-01	1.000000e-01	-3.414445e-08	
267	5.000000e-01	1.000000e-01	-1.291729e-07	
268	5.500000e-01	1.000000e-01	-4.649717e-07	
269	6.000000e-01	1.000000e-01	-1.561305e-06	
270	6.500000e-01	1.000000e-01	-4.840080e-06	
271	7.000000e-01	1.000000e-01	-1.376980e-05	
272	7.500000e-01	1.000000e-01	-3.462673e-05	
273	8.000000e-01	1.000000e-01	-7.153610e-05	
274	8.500000e-01	1.000000e-01	-1.186678e-04	
275	9.000000e-01	1.000000e-01	-1.657966e-04	
276	9.500000e-01	1.000000e-01	-2.071422e-04	
277	1.000000e+00	1.000000e-01	-2.417904e-04	
278	1.050000e+00	1.000000e-01	-2.708633e-04	
279	1.100000e+00	1.000000e-01	-2.957326e-04	
280	1.150000e+00	1.000000e-01	-3.174625e-04	
281	1.200000e+00	1.000000e-01	-3.367766e-04	
282	1.250000e+00	1.000000e-01	-3.541515e-04	
283	1.300000e+00	1.000000e-01	-3.699066e-04	
284	1.350000e+00	1.000000e-01	-3.842654e-04	
285	1.400000e+00	1.000000e-01	-3.973937e-04	
286	1.450000e+00	1.000000e-01	-4.094212e-04	

Index   v-sweep         v(2)            vds#branch      
--------------------------------------------------------------------------------
287	1.500000e+00	1.000000e-01	-4.204544e-04	
288	1.550000e+00	1.000000e-01	-4.305835e-04	
289	1.600000e+00	1.000000e-01	-4.398872e-04	
290	1.650000e+00	1.000000e-01	-4.484349e-04	
291	1.700000e+00	1.000000e-01	-4.562886e-04	
292	1.750000e+00	1.000000e-01	-4.635041e-04	
293	1.800000e+00	1.000000e-01	-4.701317e-04	
294	-6.000000e-01	1.000000e-01	-9.456192e-11	
295	-5.500000e-01	1.000000e-01	-9.456192e-11	
296	-5.000000e-01	1.000000e-01	-9.456192e-11	
297	-4.500000e-01	1.000000e-01	-9.456192e-11	
298	-4.000000e-01	1.000000e-01	-9.456191e-11	
299	-3.500000e-01	1.000000e-01	-9.456192e-11	
300	-3.000000e-01	1.000000e-01	-9.456192e-11	
301	-2.500000e-01	1.000000e-01	-9.456196e-11	
302	-2.000000e-01	1.000000e-01	-9.456212e-11	
303	-1.500000e-01	1.000000e-01	-9.456285e-11	
304	-1.000000e-01	1.000000e-01	-9.456590e-11	
305	-5.000000e-02	1.000000e-01	-9.457888e-11	
306	-6.938894e-17	1.000000e-01	-9.463391e-11	
307	5.000000e-02	1.000000e-01	-9.486724e-11	
308	1.000000e-01	1.000000e-01	-9.585401e-11	
309	1.500000e-01	1.000000e-01	-9.999640e-11	
310	2.000000e-01	1.000000e-01	-1.172733e-10	
311	2.500000e-01	1.000000e-01	-1.888370e-10	
312	3.000000e-01	1.000000e-01	-4.829541e-10	
313	3.500000e-01	1.000000e-01	-1.679961e-09	
314	4.000000e-01	1.000000e-01	-6.485162e-09	
315	4.500000e-01	1.000000e-01	-2.536994e-08	
316	5.000000e-01	1.000000e-01	-9.708249e-08	
317	5.500000e-01	1.000000e-01	-3.550705e-07	
318	6.000000e-01	1.000000e-01	-1.215402e-06	
319	6.500000e-01	1.000000e-01	-3.843036e-06	
320	7.000000e-01	1.000000e-01	-1.116656e-05	
321	7.500000e-01	1.000000e-01	-2.897495e-05	
322	8.000000e-01	1.000000e-01	-6.250937e-05	
323	8.500000e-01	1.000000e-01	-1.079365e-04	
324	9.000000e-01	1.000000e-01	-1.551111e-04	
325	9.500000e-01	1.000000e-01	-1.972299e-04	
326	1.000000e+00	1.000000e-01	-2.326855e-04	
327	1.050000e+00	1.000000e-01	-2.623870e-04	
328	1.100000e+00	1.000000e-01	-2.877095e-04	
329	1.150000e+00	1.000000e-01	-3.097696e-04	
330	1.200000e+00	1.000000e-01	-3.293369e-04	
331	1.250000e+00	1.000000e-01	-3.469185e-04	
332	1.300000e+00	1.000000e-01	-3.628520e-04	
333	1.350000e+00	1.000000e-01	-3.773714e-04	
334	1.400000e+00	1.000000e-01	-3.906482e-04	
335	1.450000e+00	1.000000e-01	-4.028153e-04	
336	1.500000e+00	1.000000e-01	-4.139811e-04	
337	1.550000e+00	1.000000e-01	-4.242371e-04	
338	1.600000e+00	1.000000e-01	-4.336624e-04	
339	1.650000e+00	1.000000e-01	-4.423271e-04	
340	1.700000e+00	1.000000e-01	-4.502936e-04	
341	1.750000e+00	1.000000e-01	-4.576178e-04	
342	1.800000e+00	1.000000e-01	-4.643505e-04	




