
Circuit: ** PMOSFET: Benchmarking Implementation of BSIM4.6.1 by Mohan V. Dunga 12/13/2006.

Circuit: ** PMOSFET: Benchmarking Implementation of BSIM4.6.1 by Mohan V. Dunga 12/13/2006.
Date: Thu Jul 31 17:05:30  2008


** PMOSFET: Benchmarking Implementation of BSIM4.6.1 by Mohan V. Dunga 12/13/2006.
DC transfer characteristic  Thu Jul 31 17:05:30  2008
--------------------------------------------------------------------------------
Index   sweep           v(2)            vds#branch      
--------------------------------------------------------------------------------
0	6.000000e-01	-1.00000e-01	4.115387e-12	
1	5.800000e-01	-1.00000e-01	4.573524e-12	
2	5.600000e-01	-1.00000e-01	5.153054e-12	
3	5.400000e-01	-1.00000e-01	5.772664e-12	
4	5.200000e-01	-1.00000e-01	6.468717e-12	
5	5.000000e-01	-1.00000e-01	7.248718e-12	
6	4.800000e-01	-1.00000e-01	8.120594e-12	
7	4.600000e-01	-1.00000e-01	9.092674e-12	
8	4.400000e-01	-1.00000e-01	1.017367e-11	
9	4.200000e-01	-1.00000e-01	1.137271e-11	
10	4.000000e-01	-1.00000e-01	1.269939e-11	
11	3.800000e-01	-1.00000e-01	1.416407e-11	
12	3.600000e-01	-1.00000e-01	1.577843e-11	
13	3.400000e-01	-1.00000e-01	1.755664e-11	
14	3.200000e-01	-1.00000e-01	1.951775e-11	
15	3.000000e-01	-1.00000e-01	2.169016e-11	
16	2.800000e-01	-1.00000e-01	2.412004e-11	
17	2.600000e-01	-1.00000e-01	2.688691e-11	
18	2.400000e-01	-1.00000e-01	3.013202e-11	
19	2.200000e-01	-1.00000e-01	3.411013e-11	
20	2.000000e-01	-1.00000e-01	3.928303e-11	
21	1.800000e-01	-1.00000e-01	4.648821e-11	
22	1.600000e-01	-1.00000e-01	5.724202e-11	
23	1.400000e-01	-1.00000e-01	7.428317e-11	
24	1.200000e-01	-1.00000e-01	1.025447e-10	
25	1.000000e-01	-1.00000e-01	1.508873e-10	
26	8.000000e-02	-1.00000e-01	2.351794e-10	
27	6.000000e-02	-1.00000e-01	3.837487e-10	
28	4.000000e-02	-1.00000e-01	6.469801e-10	
29	2.000000e-02	-1.00000e-01	1.114097e-09	
30	-2.84495e-16	-1.00000e-01	1.942243e-09	
31	-2.00000e-02	-1.00000e-01	3.406313e-09	
32	-4.00000e-02	-1.00000e-01	5.983067e-09	
33	-6.00000e-02	-1.00000e-01	1.049048e-08	
34	-8.00000e-02	-1.00000e-01	1.831317e-08	
35	-1.00000e-01	-1.00000e-01	3.175664e-08	
36	-1.20000e-01	-1.00000e-01	5.458495e-08	
37	-1.40000e-01	-1.00000e-01	9.280579e-08	
38	-1.60000e-01	-1.00000e-01	1.557729e-07	
39	-1.80000e-01	-1.00000e-01	2.576849e-07	
40	-2.00000e-01	-1.00000e-01	4.195934e-07	
41	-2.20000e-01	-1.00000e-01	6.721204e-07	
42	-2.40000e-01	-1.00000e-01	1.059231e-06	
43	-2.60000e-01	-1.00000e-01	1.643544e-06	
44	-2.80000e-01	-1.00000e-01	2.513583e-06	
45	-3.00000e-01	-1.00000e-01	3.792833e-06	
46	-3.20000e-01	-1.00000e-01	5.649148e-06	
47	-3.40000e-01	-1.00000e-01	8.301000e-06	
48	-3.60000e-01	-1.00000e-01	1.201487e-05	
49	-3.80000e-01	-1.00000e-01	1.708709e-05	
50	-4.00000e-01	-1.00000e-01	2.380577e-05	
51	-4.20000e-01	-1.00000e-01	3.239499e-05	
52	-4.40000e-01	-1.00000e-01	4.295448e-05	
53	-4.60000e-01	-1.00000e-01	5.541888e-05	
54	-4.80000e-01	-1.00000e-01	6.956128e-05	

Index   sweep           v(2)            vds#branch      
--------------------------------------------------------------------------------
55	-5.00000e-01	-1.00000e-01	8.504440e-05	
56	-5.20000e-01	-1.00000e-01	1.014923e-04	
57	-5.40000e-01	-1.00000e-01	1.185492e-04	
58	-5.60000e-01	-1.00000e-01	1.359108e-04	
59	-5.80000e-01	-1.00000e-01	1.533326e-04	
60	-6.00000e-01	-1.00000e-01	1.706268e-04	
61	-6.20000e-01	-1.00000e-01	1.876532e-04	
62	-6.40000e-01	-1.00000e-01	2.043096e-04	
63	-6.60000e-01	-1.00000e-01	2.205239e-04	
64	-6.80000e-01	-1.00000e-01	2.362463e-04	
65	-7.00000e-01	-1.00000e-01	2.514442e-04	
66	-7.20000e-01	-1.00000e-01	2.660978e-04	
67	-7.40000e-01	-1.00000e-01	2.801966e-04	
68	-7.60000e-01	-1.00000e-01	2.937371e-04	
69	-7.80000e-01	-1.00000e-01	3.067212e-04	
70	-8.00000e-01	-1.00000e-01	3.191544e-04	
71	-8.20000e-01	-1.00000e-01	3.310451e-04	
72	-8.40000e-01	-1.00000e-01	3.424037e-04	
73	-8.60000e-01	-1.00000e-01	3.532419e-04	
74	-8.80000e-01	-1.00000e-01	3.635728e-04	
75	-9.00000e-01	-1.00000e-01	3.734097e-04	
76	-9.20000e-01	-1.00000e-01	3.827667e-04	
77	-9.40000e-01	-1.00000e-01	3.916577e-04	
78	-9.60000e-01	-1.00000e-01	4.000968e-04	
79	-9.80000e-01	-1.00000e-01	4.080980e-04	
80	-1.00000e+00	-1.00000e-01	4.156749e-04	
81	-1.02000e+00	-1.00000e-01	4.228408e-04	
82	-1.04000e+00	-1.00000e-01	4.296085e-04	
83	-1.06000e+00	-1.00000e-01	4.359903e-04	
84	-1.08000e+00	-1.00000e-01	4.419979e-04	
85	-1.10000e+00	-1.00000e-01	4.476420e-04	
86	-1.12000e+00	-1.00000e-01	4.529328e-04	
87	-1.14000e+00	-1.00000e-01	4.578794e-04	
88	-1.16000e+00	-1.00000e-01	4.624901e-04	
89	-1.18000e+00	-1.00000e-01	4.667719e-04	
90	-1.20000e+00	-1.00000e-01	4.707307e-04	
91	6.000000e-01	-1.00000e-01	1.113576e-11	
92	5.800000e-01	-1.00000e-01	1.159387e-11	
93	5.600000e-01	-1.00000e-01	1.217333e-11	
94	5.400000e-01	-1.00000e-01	1.279283e-11	
95	5.200000e-01	-1.00000e-01	1.348869e-11	
96	5.000000e-01	-1.00000e-01	1.426834e-11	
97	4.800000e-01	-1.00000e-01	1.513958e-11	
98	4.600000e-01	-1.00000e-01	1.611052e-11	
99	4.400000e-01	-1.00000e-01	1.718949e-11	
100	4.200000e-01	-1.00000e-01	1.838487e-11	
101	4.000000e-01	-1.00000e-01	1.970500e-11	
102	3.800000e-01	-1.00000e-01	2.115792e-11	
103	3.600000e-01	-1.00000e-01	2.275118e-11	
104	3.400000e-01	-1.00000e-01	2.449154e-11	
105	3.200000e-01	-1.00000e-01	2.638475e-11	
106	3.000000e-01	-1.00000e-01	2.843537e-11	
107	2.800000e-01	-1.00000e-01	3.064683e-11	
108	2.600000e-01	-1.00000e-01	3.302196e-11	
109	2.400000e-01	-1.00000e-01	3.556467e-11	
110	2.200000e-01	-1.00000e-01	3.828358e-11	
111	2.000000e-01	-1.00000e-01	4.119959e-11	
112	1.800000e-01	-1.00000e-01	4.436096e-11	

Index   sweep           v(2)            vds#branch      
--------------------------------------------------------------------------------
113	1.600000e-01	-1.00000e-01	4.787202e-11	
114	1.400000e-01	-1.00000e-01	5.194748e-11	
115	1.200000e-01	-1.00000e-01	5.701355e-11	
116	1.000000e-01	-1.00000e-01	6.389504e-11	
117	8.000000e-02	-1.00000e-01	7.415958e-11	
118	6.000000e-02	-1.00000e-01	9.074799e-11	
119	4.000000e-02	-1.00000e-01	1.191243e-10	
120	2.000000e-02	-1.00000e-01	1.693651e-10	
121	-2.84495e-16	-1.00000e-01	2.599393e-10	
122	-2.00000e-02	-1.00000e-01	4.245066e-10	
123	-4.00000e-02	-1.00000e-01	7.240641e-10	
124	-6.00000e-02	-1.00000e-01	1.268454e-09	
125	-8.00000e-02	-1.00000e-01	2.254007e-09	
126	-1.00000e-01	-1.00000e-01	4.028449e-09	
127	-1.20000e-01	-1.00000e-01	7.200651e-09	
128	-1.40000e-01	-1.00000e-01	1.282169e-08	
129	-1.60000e-01	-1.00000e-01	2.267442e-08	
130	-1.80000e-01	-1.00000e-01	3.971959e-08	
131	-2.00000e-01	-1.00000e-01	6.875414e-08	
132	-2.20000e-01	-1.00000e-01	1.173397e-07	
133	-2.40000e-01	-1.00000e-01	1.970615e-07	
134	-2.60000e-01	-1.00000e-01	3.252014e-07	
135	-2.80000e-01	-1.00000e-01	5.269836e-07	
136	-3.00000e-01	-1.00000e-01	8.386966e-07	
137	-3.20000e-01	-1.00000e-01	1.312159e-06	
138	-3.40000e-01	-1.00000e-01	2.021008e-06	
139	-3.60000e-01	-1.00000e-01	3.068900e-06	
140	-3.80000e-01	-1.00000e-01	4.598631e-06	
141	-4.00000e-01	-1.00000e-01	6.799295e-06	
142	-4.20000e-01	-1.00000e-01	9.906288e-06	
143	-4.40000e-01	-1.00000e-01	1.418750e-05	
144	-4.60000e-01	-1.00000e-01	1.991039e-05	
145	-4.80000e-01	-1.00000e-01	2.729070e-05	
146	-5.00000e-01	-1.00000e-01	3.643415e-05	
147	-5.20000e-01	-1.00000e-01	4.729447e-05	
148	-5.40000e-01	-1.00000e-01	5.967309e-05	
149	-5.60000e-01	-1.00000e-01	7.326584e-05	
150	-5.80000e-01	-1.00000e-01	8.773111e-05	
151	-6.00000e-01	-1.00000e-01	1.027460e-04	
152	-6.20000e-01	-1.00000e-01	1.180359e-04	
153	-6.40000e-01	-1.00000e-01	1.333821e-04	
154	-6.60000e-01	-1.00000e-01	1.486180e-04	
155	-6.80000e-01	-1.00000e-01	1.636204e-04	
156	-7.00000e-01	-1.00000e-01	1.783009e-04	
157	-7.20000e-01	-1.00000e-01	1.925973e-04	
158	-7.40000e-01	-1.00000e-01	2.064678e-04	
159	-7.60000e-01	-1.00000e-01	2.198850e-04	
160	-7.80000e-01	-1.00000e-01	2.328330e-04	
161	-8.00000e-01	-1.00000e-01	2.453034e-04	
162	-8.20000e-01	-1.00000e-01	2.572941e-04	
163	-8.40000e-01	-1.00000e-01	2.688072e-04	
164	-8.60000e-01	-1.00000e-01	2.798477e-04	
165	-8.80000e-01	-1.00000e-01	2.904232e-04	
166	-9.00000e-01	-1.00000e-01	3.005425e-04	
167	-9.20000e-01	-1.00000e-01	3.102158e-04	
168	-9.40000e-01	-1.00000e-01	3.194537e-04	
169	-9.60000e-01	-1.00000e-01	3.282674e-04	
170	-9.80000e-01	-1.00000e-01	3.366683e-04	

Index   sweep           v(2)            vds#branch      
--------------------------------------------------------------------------------
171	-1.00000e+00	-1.00000e-01	3.446676e-04	
172	-1.02000e+00	-1.00000e-01	3.522766e-04	
173	-1.04000e+00	-1.00000e-01	3.595061e-04	
174	-1.06000e+00	-1.00000e-01	3.663666e-04	
175	-1.08000e+00	-1.00000e-01	3.728681e-04	
176	-1.10000e+00	-1.00000e-01	3.790200e-04	
177	-1.12000e+00	-1.00000e-01	3.848308e-04	
178	-1.14000e+00	-1.00000e-01	3.903086e-04	
179	-1.16000e+00	-1.00000e-01	3.954602e-04	
180	-1.18000e+00	-1.00000e-01	4.002915e-04	
181	-1.20000e+00	-1.00000e-01	4.048074e-04	
182	6.000000e-01	-1.00000e-01	3.112384e-11	
183	5.800000e-01	-1.00000e-01	3.158195e-11	
184	5.600000e-01	-1.00000e-01	3.216141e-11	
185	5.400000e-01	-1.00000e-01	3.278090e-11	
186	5.200000e-01	-1.00000e-01	3.347675e-11	
187	5.000000e-01	-1.00000e-01	3.425638e-11	
188	4.800000e-01	-1.00000e-01	3.512758e-11	
189	4.600000e-01	-1.00000e-01	3.609845e-11	
190	4.400000e-01	-1.00000e-01	3.717727e-11	
191	4.200000e-01	-1.00000e-01	3.837240e-11	
192	4.000000e-01	-1.00000e-01	3.969206e-11	
193	3.800000e-01	-1.00000e-01	4.114413e-11	
194	3.600000e-01	-1.00000e-01	4.273583e-11	
195	3.400000e-01	-1.00000e-01	4.447333e-11	
196	3.200000e-01	-1.00000e-01	4.636131e-11	
197	3.000000e-01	-1.00000e-01	4.840236e-11	
198	2.800000e-01	-1.00000e-01	5.059629e-11	
199	2.600000e-01	-1.00000e-01	5.293937e-11	
200	2.400000e-01	-1.00000e-01	5.542344e-11	
201	2.200000e-01	-1.00000e-01	5.803506e-11	
202	2.000000e-01	-1.00000e-01	6.075482e-11	
203	1.800000e-01	-1.00000e-01	6.355724e-11	
204	1.600000e-01	-1.00000e-01	6.641189e-11	
205	1.400000e-01	-1.00000e-01	6.928720e-11	
206	1.200000e-01	-1.00000e-01	7.215958e-11	
207	1.000000e-01	-1.00000e-01	7.503278e-11	
208	8.000000e-02	-1.00000e-01	7.797678e-11	
209	6.000000e-02	-1.00000e-01	8.120355e-11	
210	4.000000e-02	-1.00000e-01	8.521154e-11	
211	2.000000e-02	-1.00000e-01	9.105834e-11	
212	-2.84495e-16	-1.00000e-01	1.008704e-10	
213	-2.00000e-02	-1.00000e-01	1.187902e-10	
214	-4.00000e-02	-1.00000e-01	1.527259e-10	
215	-6.00000e-02	-1.00000e-01	2.175660e-10	
216	-8.00000e-02	-1.00000e-01	3.410480e-10	
217	-1.00000e-01	-1.00000e-01	5.743914e-10	
218	-1.20000e-01	-1.00000e-01	1.011376e-09	
219	-1.40000e-01	-1.00000e-01	1.822154e-09	
220	-1.60000e-01	-1.00000e-01	3.312198e-09	
221	-1.80000e-01	-1.00000e-01	6.022947e-09	
222	-2.00000e-01	-1.00000e-01	1.089907e-08	
223	-2.20000e-01	-1.00000e-01	1.955721e-08	
224	-2.40000e-01	-1.00000e-01	3.470034e-08	
225	-2.60000e-01	-1.00000e-01	6.072725e-08	
226	-2.80000e-01	-1.00000e-01	1.045859e-07	
227	-3.00000e-01	-1.00000e-01	1.769198e-07	
228	-3.20000e-01	-1.00000e-01	2.935816e-07	

Index   sweep           v(2)            vds#branch      
--------------------------------------------------------------------------------
229	-3.40000e-01	-1.00000e-01	4.776694e-07	
230	-3.60000e-01	-1.00000e-01	7.623940e-07	
231	-3.80000e-01	-1.00000e-01	1.195243e-06	
232	-4.00000e-01	-1.00000e-01	1.843912e-06	
233	-4.20000e-01	-1.00000e-01	2.804069e-06	
234	-4.40000e-01	-1.00000e-01	4.207941e-06	
235	-4.60000e-01	-1.00000e-01	6.230865e-06	
236	-4.80000e-01	-1.00000e-01	9.090668e-06	
237	-5.00000e-01	-1.00000e-01	1.303339e-05	
238	-5.20000e-01	-1.00000e-01	1.830053e-05	
239	-5.40000e-01	-1.00000e-01	2.507926e-05	
240	-5.60000e-01	-1.00000e-01	3.344832e-05	
241	-5.80000e-01	-1.00000e-01	4.334307e-05	
242	-6.00000e-01	-1.00000e-01	5.456289e-05	
243	-6.20000e-01	-1.00000e-01	6.682087e-05	
244	-6.40000e-01	-1.00000e-01	7.980753e-05	
245	-6.60000e-01	-1.00000e-01	9.323850e-05	
246	-6.80000e-01	-1.00000e-01	1.068769e-04	
247	-7.00000e-01	-1.00000e-01	1.205372e-04	
248	-7.20000e-01	-1.00000e-01	1.340799e-04	
249	-7.40000e-01	-1.00000e-01	1.474031e-04	
250	-7.60000e-01	-1.00000e-01	1.604343e-04	
251	-7.80000e-01	-1.00000e-01	1.731235e-04	
252	-8.00000e-01	-1.00000e-01	1.854371e-04	
253	-8.20000e-01	-1.00000e-01	1.973537e-04	
254	-8.40000e-01	-1.00000e-01	2.088611e-04	
255	-8.60000e-01	-1.00000e-01	2.199534e-04	
256	-8.80000e-01	-1.00000e-01	2.306295e-04	
257	-9.00000e-01	-1.00000e-01	2.408916e-04	
258	-9.20000e-01	-1.00000e-01	2.507444e-04	
259	-9.40000e-01	-1.00000e-01	2.601942e-04	
260	-9.60000e-01	-1.00000e-01	2.692485e-04	
261	-9.80000e-01	-1.00000e-01	2.779156e-04	
262	-1.00000e+00	-1.00000e-01	2.862042e-04	
263	-1.02000e+00	-1.00000e-01	2.941230e-04	
264	-1.04000e+00	-1.00000e-01	3.016809e-04	
265	-1.06000e+00	-1.00000e-01	3.088866e-04	
266	-1.08000e+00	-1.00000e-01	3.157484e-04	
267	-1.10000e+00	-1.00000e-01	3.222742e-04	
268	-1.12000e+00	-1.00000e-01	3.284711e-04	
269	-1.14000e+00	-1.00000e-01	3.343460e-04	
270	-1.16000e+00	-1.00000e-01	3.399044e-04	
271	-1.18000e+00	-1.00000e-01	3.451514e-04	
272	-1.20000e+00	-1.00000e-01	3.500907e-04	
273	6.000000e-01	-1.00000e-01	7.656980e-11	
274	5.800000e-01	-1.00000e-01	7.702791e-11	
275	5.600000e-01	-1.00000e-01	7.760736e-11	
276	5.400000e-01	-1.00000e-01	7.822686e-11	
277	5.200000e-01	-1.00000e-01	7.892270e-11	
278	5.000000e-01	-1.00000e-01	7.970232e-11	
279	4.800000e-01	-1.00000e-01	8.057352e-11	
280	4.600000e-01	-1.00000e-01	8.154439e-11	
281	4.400000e-01	-1.00000e-01	8.262320e-11	
282	4.200000e-01	-1.00000e-01	8.381830e-11	
283	4.000000e-01	-1.00000e-01	8.513792e-11	
284	3.800000e-01	-1.00000e-01	8.658991e-11	
285	3.600000e-01	-1.00000e-01	8.818146e-11	
286	3.400000e-01	-1.00000e-01	8.991869e-11	

Index   sweep           v(2)            vds#branch      
--------------------------------------------------------------------------------
287	3.200000e-01	-1.00000e-01	9.180616e-11	
288	3.000000e-01	-1.00000e-01	9.384627e-11	
289	2.800000e-01	-1.00000e-01	9.603845e-11	
290	2.600000e-01	-1.00000e-01	9.837829e-11	
291	2.400000e-01	-1.00000e-01	1.008563e-10	
292	2.200000e-01	-1.00000e-01	1.034568e-10	
293	2.000000e-01	-1.00000e-01	1.061558e-10	
294	1.800000e-01	-1.00000e-01	1.089197e-10	
295	1.600000e-01	-1.00000e-01	1.117029e-10	
296	1.400000e-01	-1.00000e-01	1.144456e-10	
297	1.200000e-01	-1.00000e-01	1.170720e-10	
298	1.000000e-01	-1.00000e-01	1.194888e-10	
299	8.000000e-02	-1.00000e-01	1.215864e-10	
300	6.000000e-02	-1.00000e-01	1.232438e-10	
301	4.000000e-02	-1.00000e-01	1.243427e-10	
302	2.000000e-02	-1.00000e-01	1.248000e-10	
303	-2.84495e-16	-1.00000e-01	1.246331e-10	
304	-2.00000e-02	-1.00000e-01	1.240920e-10	
305	-4.00000e-02	-1.00000e-01	1.239133e-10	
306	-6.00000e-02	-1.00000e-01	1.258064e-10	
307	-8.00000e-02	-1.00000e-01	1.333711e-10	
308	-1.00000e-01	-1.00000e-01	1.538160e-10	
309	-1.20000e-01	-1.00000e-01	2.011532e-10	
310	-1.40000e-01	-1.00000e-01	3.020926e-10	
311	-1.60000e-01	-1.00000e-01	5.068168e-10	
312	-1.80000e-01	-1.00000e-01	9.084655e-10	
313	-2.00000e-01	-1.00000e-01	1.677870e-09	
314	-2.20000e-01	-1.00000e-01	3.124347e-09	
315	-2.40000e-01	-1.00000e-01	5.799602e-09	
316	-2.60000e-01	-1.00000e-01	1.066999e-08	
317	-2.80000e-01	-1.00000e-01	1.939145e-08	
318	-3.00000e-01	-1.00000e-01	3.472862e-08	
319	-3.20000e-01	-1.00000e-01	6.116170e-08	
320	-3.40000e-01	-1.00000e-01	1.057211e-07	
321	-3.60000e-01	-1.00000e-01	1.790938e-07	
322	-3.80000e-01	-1.00000e-01	2.970812e-07	
323	-4.00000e-01	-1.00000e-01	4.825947e-07	
324	-4.20000e-01	-1.00000e-01	7.685311e-07	
325	-4.40000e-01	-1.00000e-01	1.202005e-06	
326	-4.60000e-01	-1.00000e-01	1.850336e-06	
327	-4.80000e-01	-1.00000e-01	2.808658e-06	
328	-5.00000e-01	-1.00000e-01	4.207818e-06	
329	-5.20000e-01	-1.00000e-01	6.219264e-06	
330	-5.40000e-01	-1.00000e-01	9.051549e-06	
331	-5.60000e-01	-1.00000e-01	1.293230e-05	
332	-5.80000e-01	-1.00000e-01	1.807233e-05	
333	-6.00000e-01	-1.00000e-01	2.461619e-05	
334	-6.20000e-01	-1.00000e-01	3.259487e-05	
335	-6.40000e-01	-1.00000e-01	4.190473e-05	
336	-6.60000e-01	-1.00000e-01	5.232964e-05	
337	-6.80000e-01	-1.00000e-01	6.359553e-05	
338	-7.00000e-01	-1.00000e-01	7.542644e-05	
339	-7.20000e-01	-1.00000e-01	8.757988e-05	
340	-7.40000e-01	-1.00000e-01	9.985979e-05	
341	-7.60000e-01	-1.00000e-01	1.121158e-04	
342	-7.80000e-01	-1.00000e-01	1.242364e-04	
343	-8.00000e-01	-1.00000e-01	1.361416e-04	
344	-8.20000e-01	-1.00000e-01	1.477748e-04	

Index   sweep           v(2)            vds#branch      
--------------------------------------------------------------------------------
345	-8.40000e-01	-1.00000e-01	1.590975e-04	
346	-8.60000e-01	-1.00000e-01	1.700842e-04	
347	-8.80000e-01	-1.00000e-01	1.807191e-04	
348	-9.00000e-01	-1.00000e-01	1.909933e-04	
349	-9.20000e-01	-1.00000e-01	2.009029e-04	
350	-9.40000e-01	-1.00000e-01	2.104477e-04	
351	-9.60000e-01	-1.00000e-01	2.196299e-04	
352	-9.80000e-01	-1.00000e-01	2.284534e-04	
353	-1.00000e+00	-1.00000e-01	2.369236e-04	
354	-1.02000e+00	-1.00000e-01	2.450463e-04	
355	-1.04000e+00	-1.00000e-01	2.528279e-04	
356	-1.06000e+00	-1.00000e-01	2.602750e-04	
357	-1.08000e+00	-1.00000e-01	2.673941e-04	
358	-1.10000e+00	-1.00000e-01	2.741914e-04	
359	-1.12000e+00	-1.00000e-01	2.806727e-04	
360	-1.14000e+00	-1.00000e-01	2.868433e-04	
361	-1.16000e+00	-1.00000e-01	2.927080e-04	
362	-1.18000e+00	-1.00000e-01	2.982704e-04	
363	-1.20000e+00	-1.00000e-01	3.035333e-04	
364	6.000000e-01	-1.00000e-01	1.637648e-10	
365	5.800000e-01	-1.00000e-01	1.642229e-10	
366	5.600000e-01	-1.00000e-01	1.648024e-10	
367	5.400000e-01	-1.00000e-01	1.654219e-10	
368	5.200000e-01	-1.00000e-01	1.661177e-10	
369	5.000000e-01	-1.00000e-01	1.668973e-10	
370	4.800000e-01	-1.00000e-01	1.677685e-10	
371	4.600000e-01	-1.00000e-01	1.687394e-10	
372	4.400000e-01	-1.00000e-01	1.698182e-10	
373	4.200000e-01	-1.00000e-01	1.710133e-10	
374	4.000000e-01	-1.00000e-01	1.723329e-10	
375	3.800000e-01	-1.00000e-01	1.737849e-10	
376	3.600000e-01	-1.00000e-01	1.753764e-10	
377	3.400000e-01	-1.00000e-01	1.771136e-10	
378	3.200000e-01	-1.00000e-01	1.790010e-10	
379	3.000000e-01	-1.00000e-01	1.810410e-10	
380	2.800000e-01	-1.00000e-01	1.832330e-10	
381	2.600000e-01	-1.00000e-01	1.855725e-10	
382	2.400000e-01	-1.00000e-01	1.880498e-10	
383	2.200000e-01	-1.00000e-01	1.906489e-10	
384	2.000000e-01	-1.00000e-01	1.933454e-10	
385	1.800000e-01	-1.00000e-01	1.961045e-10	
386	1.600000e-01	-1.00000e-01	1.988788e-10	
387	1.400000e-01	-1.00000e-01	2.016047e-10	
388	1.200000e-01	-1.00000e-01	2.041996e-10	
389	1.000000e-01	-1.00000e-01	2.065573e-10	
390	8.000000e-02	-1.00000e-01	2.085440e-10	
391	6.000000e-02	-1.00000e-01	2.099933e-10	
392	4.000000e-02	-1.00000e-01	2.107022e-10	
393	2.000000e-02	-1.00000e-01	2.104279e-10	
394	-2.84495e-16	-1.00000e-01	2.088896e-10	
395	-2.00000e-02	-1.00000e-01	2.057786e-10	
396	-4.00000e-02	-1.00000e-01	2.007867e-10	
397	-6.00000e-02	-1.00000e-01	1.936711e-10	
398	-8.00000e-02	-1.00000e-01	1.843899e-10	
399	-1.00000e-01	-1.00000e-01	1.733726e-10	
400	-1.20000e-01	-1.00000e-01	1.620475e-10	
401	-1.40000e-01	-1.00000e-01	1.538523e-10	
402	-1.60000e-01	-1.00000e-01	1.561487e-10	

Index   sweep           v(2)            vds#branch      
--------------------------------------------------------------------------------
403	-1.80000e-01	-1.00000e-01	1.838142e-10	
404	-2.00000e-01	-1.00000e-01	2.659139e-10	
405	-2.20000e-01	-1.00000e-01	4.579612e-10	
406	-2.40000e-01	-1.00000e-01	8.641528e-10	
407	-2.60000e-01	-1.00000e-01	1.677022e-09	
408	-2.80000e-01	-1.00000e-01	3.246645e-09	
409	-3.00000e-01	-1.00000e-01	6.198101e-09	
410	-3.20000e-01	-1.00000e-01	1.162392e-08	
411	-3.40000e-01	-1.00000e-01	2.138593e-08	
412	-3.60000e-01	-1.00000e-01	3.856492e-08	
413	-3.80000e-01	-1.00000e-01	6.809476e-08	
414	-4.00000e-01	-1.00000e-01	1.176137e-07	
415	-4.20000e-01	-1.00000e-01	1.985806e-07	
416	-4.40000e-01	-1.00000e-01	3.277663e-07	
417	-4.60000e-01	-1.00000e-01	5.293616e-07	
418	-4.80000e-01	-1.00000e-01	8.380992e-07	
419	-5.00000e-01	-1.00000e-01	1.303844e-06	
420	-5.20000e-01	-1.00000e-01	1.997885e-06	
421	-5.40000e-01	-1.00000e-01	3.020400e-06	
422	-5.60000e-01	-1.00000e-01	4.507132e-06	
423	-5.80000e-01	-1.00000e-01	6.631260e-06	
424	-6.00000e-01	-1.00000e-01	9.594797e-06	
425	-6.20000e-01	-1.00000e-01	1.360439e-05	
426	-6.40000e-01	-1.00000e-01	1.883110e-05	
427	-6.60000e-01	-1.00000e-01	2.536298e-05	
428	-6.80000e-01	-1.00000e-01	3.317000e-05	
429	-7.00000e-01	-1.00000e-01	4.210324e-05	
430	-7.20000e-01	-1.00000e-01	5.193302e-05	
431	-7.40000e-01	-1.00000e-01	6.240381e-05	
432	-7.60000e-01	-1.00000e-01	7.327765e-05	
433	-7.80000e-01	-1.00000e-01	8.435553e-05	
434	-8.00000e-01	-1.00000e-01	9.548160e-05	
435	-8.20000e-01	-1.00000e-01	1.065389e-04	
436	-8.40000e-01	-1.00000e-01	1.174421e-04	
437	-8.60000e-01	-1.00000e-01	1.281307e-04	
438	-8.80000e-01	-1.00000e-01	1.385624e-04	
439	-9.00000e-01	-1.00000e-01	1.487088e-04	
440	-9.20000e-01	-1.00000e-01	1.585513e-04	
441	-9.40000e-01	-1.00000e-01	1.680785e-04	
442	-9.60000e-01	-1.00000e-01	1.772845e-04	
443	-9.80000e-01	-1.00000e-01	1.861666e-04	
444	-1.00000e+00	-1.00000e-01	1.947251e-04	
445	-1.02000e+00	-1.00000e-01	2.029619e-04	
446	-1.04000e+00	-1.00000e-01	2.108800e-04	
447	-1.06000e+00	-1.00000e-01	2.184834e-04	
448	-1.08000e+00	-1.00000e-01	2.257762e-04	
449	-1.10000e+00	-1.00000e-01	2.327627e-04	
450	-1.12000e+00	-1.00000e-01	2.394473e-04	
451	-1.14000e+00	-1.00000e-01	2.458336e-04	
452	-1.16000e+00	-1.00000e-01	2.519251e-04	
453	-1.18000e+00	-1.00000e-01	2.577243e-04	
454	-1.20000e+00	-1.00000e-01	2.632331e-04	

CPU time since last call: 0.280 seconds.

Total CPU time: 0.280 seconds.

Current dynamic memory usage = 303104,
Dynamic memory limit = -23998888.

