
Circuit: ** PMOSFET: Benchmarking Implementation of BSIM4.1.0 by Weidong Liu 10/11/2000.

Circuit: ** PMOSFET: Benchmarking Implementation of BSIM4.1.0 by Weidong Liu 10/11/2000.
Date: Wed Oct 11 05:33:10  2000


** PMOSFET: Benchmarking Implementation of BSIM4.1.0 by Weidong Liu 10/11/2000.
DC transfer characteristic  Wed Oct 11 05:33:10  2000
--------------------------------------------------------------------------------
Index   sweep           v(1)            vds#branch      
--------------------------------------------------------------------------------
0	0.000000e+00	0.000000e+00	-2.897181e-34	
1	-5.000000e-02	0.000000e+00	5.024800e-14	
2	-1.000000e-01	0.000000e+00	1.001421e-13	
3	-1.500000e-01	0.000000e+00	1.501785e-13	
4	-2.000000e-01	0.000000e+00	2.002010e-13	
5	-2.500000e-01	0.000000e+00	2.502443e-13	
6	-3.000000e-01	0.000000e+00	3.002876e-13	
7	-3.500000e-01	0.000000e+00	3.503031e-13	
8	-4.000000e-01	0.000000e+00	4.003464e-13	
9	-4.500000e-01	0.000000e+00	4.503897e-13	
10	-5.000000e-01	0.000000e+00	5.004608e-13	
11	-5.500000e-01	0.000000e+00	5.505041e-13	
12	-6.000000e-01	0.000000e+00	6.005196e-13	
13	-6.500000e-01	0.000000e+00	6.506462e-13	
14	-7.000000e-01	0.000000e+00	7.007173e-13	
15	-7.500000e-01	0.000000e+00	7.507883e-13	
16	-8.000000e-01	0.000000e+00	8.008039e-13	
17	-8.500000e-01	0.000000e+00	8.508749e-13	
18	-9.000000e-01	0.000000e+00	9.009460e-13	
19	-9.500000e-01	0.000000e+00	9.511281e-13	
20	-1.000000e+00	0.000000e+00	1.001255e-12	
21	-1.050000e+00	0.000000e+00	1.051270e-12	
22	-1.100000e+00	0.000000e+00	1.101397e-12	
23	-1.150000e+00	0.000000e+00	1.151523e-12	
24	-1.200000e+00	0.000000e+00	1.201705e-12	
25	-1.250000e+00	0.000000e+00	1.251665e-12	
26	-1.300000e+00	0.000000e+00	1.301848e-12	
27	-1.350000e+00	0.000000e+00	1.352141e-12	
28	-1.400000e+00	0.000000e+00	1.404876e-12	
29	-1.450000e+00	0.000000e+00	1.486034e-12	
30	-1.500000e+00	0.000000e+00	1.792233e-12	
31	-1.550000e+00	0.000000e+00	3.430589e-12	
32	-1.600000e+00	0.000000e+00	1.127953e-11	
33	-1.650000e+00	0.000000e+00	4.291933e-11	
34	-1.700000e+00	0.000000e+00	1.519836e-10	
35	-1.750000e+00	0.000000e+00	4.808182e-10	
36	0.000000e+00	-3.000000e-01	-1.303081e-18	
37	-5.000000e-02	-3.000000e-01	1.589716e-10	
38	-1.000000e-01	-3.000000e-01	2.095691e-10	
39	-1.500000e-01	-3.000000e-01	2.546068e-10	
40	-2.000000e-01	-3.000000e-01	3.015264e-10	
41	-2.500000e-01	-3.000000e-01	3.514624e-10	
42	-3.000000e-01	-3.000000e-01	4.048342e-10	
43	-3.500000e-01	-3.000000e-01	4.619196e-10	
44	-4.000000e-01	-3.000000e-01	5.229613e-10	
45	-4.500000e-01	-3.000000e-01	5.881962e-10	
46	-5.000000e-01	-3.000000e-01	6.578647e-10	
47	-5.500000e-01	-3.000000e-01	7.322151e-10	
48	-6.000000e-01	-3.000000e-01	8.115063e-10	
49	-6.500000e-01	-3.000000e-01	8.960077e-10	
50	-7.000000e-01	-3.000000e-01	9.860017e-10	
51	-7.500000e-01	-3.000000e-01	1.081783e-09	
52	-8.000000e-01	-3.000000e-01	1.183662e-09	
53	-8.500000e-01	-3.000000e-01	1.291961e-09	
54	-9.000000e-01	-3.000000e-01	1.407019e-09	

Index   sweep           v(1)            vds#branch      
--------------------------------------------------------------------------------
55	-9.500000e-01	-3.000000e-01	1.529190e-09	
56	-1.000000e+00	-3.000000e-01	1.658846e-09	
57	-1.050000e+00	-3.000000e-01	1.796376e-09	
58	-1.100000e+00	-3.000000e-01	1.942187e-09	
59	-1.150000e+00	-3.000000e-01	2.096705e-09	
60	-1.200000e+00	-3.000000e-01	2.260381e-09	
61	-1.250000e+00	-3.000000e-01	2.433691e-09	
62	-1.300000e+00	-3.000000e-01	2.617153e-09	
63	-1.350000e+00	-3.000000e-01	2.811349e-09	
64	-1.400000e+00	-3.000000e-01	3.016973e-09	
65	-1.450000e+00	-3.000000e-01	3.234920e-09	
66	-1.500000e+00	-3.000000e-01	3.466450e-09	
67	-1.550000e+00	-3.000000e-01	3.713454e-09	
68	-1.600000e+00	-3.000000e-01	3.978905e-09	
69	-1.650000e+00	-3.000000e-01	4.267560e-09	
70	-1.700000e+00	-3.000000e-01	4.587029e-09	
71	-1.750000e+00	-3.000000e-01	4.949382e-09	
72	0.000000e+00	-6.000000e-01	-9.411892e-18	
73	-5.000000e-02	-6.000000e-01	5.630617e-05	
74	-1.000000e-01	-6.000000e-01	7.365222e-05	
75	-1.500000e-01	-6.000000e-01	8.438244e-05	
76	-2.000000e-01	-6.000000e-01	9.425966e-05	
77	-2.500000e-01	-6.000000e-01	1.041281e-04	
78	-3.000000e-01	-6.000000e-01	1.141827e-04	
79	-3.500000e-01	-6.000000e-01	1.244879e-04	
80	-4.000000e-01	-6.000000e-01	1.350713e-04	
81	-4.500000e-01	-6.000000e-01	1.459467e-04	
82	-5.000000e-01	-6.000000e-01	1.571222e-04	
83	-5.500000e-01	-6.000000e-01	1.686029e-04	
84	-6.000000e-01	-6.000000e-01	1.803924e-04	
85	-6.500000e-01	-6.000000e-01	1.924933e-04	
86	-7.000000e-01	-6.000000e-01	2.049076e-04	
87	-7.500000e-01	-6.000000e-01	2.176369e-04	
88	-8.000000e-01	-6.000000e-01	2.306823e-04	
89	-8.500000e-01	-6.000000e-01	2.440446e-04	
90	-9.000000e-01	-6.000000e-01	2.577246e-04	
91	-9.500000e-01	-6.000000e-01	2.717226e-04	
92	-1.000000e+00	-6.000000e-01	2.860388e-04	
93	-1.050000e+00	-6.000000e-01	3.006734e-04	
94	-1.100000e+00	-6.000000e-01	3.156262e-04	
95	-1.150000e+00	-6.000000e-01	3.308970e-04	
96	-1.200000e+00	-6.000000e-01	3.464855e-04	
97	-1.250000e+00	-6.000000e-01	3.623921e-04	
98	-1.300000e+00	-6.000000e-01	3.786181e-04	
99	-1.350000e+00	-6.000000e-01	3.951679e-04	
100	-1.400000e+00	-6.000000e-01	4.120521e-04	
101	-1.450000e+00	-6.000000e-01	4.292945e-04	
102	-1.500000e+00	-6.000000e-01	4.469429e-04	
103	-1.550000e+00	-6.000000e-01	4.650886e-04	
104	-1.600000e+00	-6.000000e-01	4.838974e-04	
105	-1.650000e+00	-6.000000e-01	5.036561e-04	
106	-1.700000e+00	-6.000000e-01	5.248431e-04	
107	-1.750000e+00	-6.000000e-01	5.482280e-04	
108	0.000000e+00	-9.000000e-01	-2.853929e-17	
109	-5.000000e-02	-9.000000e-01	5.728409e-04	
110	-1.000000e-01	-9.000000e-01	1.014452e-03	
111	-1.500000e-01	-9.000000e-01	1.337481e-03	
112	-2.000000e-01	-9.000000e-01	1.555256e-03	

Index   sweep           v(1)            vds#branch      
--------------------------------------------------------------------------------
113	-2.500000e-01	-9.000000e-01	1.690638e-03	
114	-3.000000e-01	-9.000000e-01	1.776876e-03	
115	-3.500000e-01	-9.000000e-01	1.839907e-03	
116	-4.000000e-01	-9.000000e-01	1.892454e-03	
117	-4.500000e-01	-9.000000e-01	1.939920e-03	
118	-5.000000e-01	-9.000000e-01	1.984696e-03	
119	-5.500000e-01	-9.000000e-01	2.027937e-03	
120	-6.000000e-01	-9.000000e-01	2.070258e-03	
121	-6.500000e-01	-9.000000e-01	2.112007e-03	
122	-7.000000e-01	-9.000000e-01	2.153393e-03	
123	-7.500000e-01	-9.000000e-01	2.194550e-03	
124	-8.000000e-01	-9.000000e-01	2.235566e-03	
125	-8.500000e-01	-9.000000e-01	2.276499e-03	
126	-9.000000e-01	-9.000000e-01	2.317391e-03	
127	-9.500000e-01	-9.000000e-01	2.358272e-03	
128	-1.000000e+00	-9.000000e-01	2.399161e-03	
129	-1.050000e+00	-9.000000e-01	2.440073e-03	
130	-1.100000e+00	-9.000000e-01	2.481019e-03	
131	-1.150000e+00	-9.000000e-01	2.522007e-03	
132	-1.200000e+00	-9.000000e-01	2.563041e-03	
133	-1.250000e+00	-9.000000e-01	2.604125e-03	
134	-1.300000e+00	-9.000000e-01	2.645262e-03	
135	-1.350000e+00	-9.000000e-01	2.686455e-03	
136	-1.400000e+00	-9.000000e-01	2.727707e-03	
137	-1.450000e+00	-9.000000e-01	2.769029e-03	
138	-1.500000e+00	-9.000000e-01	2.810447e-03	
139	-1.550000e+00	-9.000000e-01	2.852019e-03	
140	-1.600000e+00	-9.000000e-01	2.893866e-03	
141	-1.650000e+00	-9.000000e-01	2.936225e-03	
142	-1.700000e+00	-9.000000e-01	2.979542e-03	
143	-1.750000e+00	-9.000000e-01	3.024609e-03	
144	0.000000e+00	-1.200000e+00	-5.659023e-17	
145	-5.000000e-02	-1.200000e+00	7.635936e-04	
146	-1.000000e-01	-1.200000e+00	1.424753e-03	
147	-1.500000e-01	-1.200000e+00	1.989154e-03	
148	-2.000000e-01	-1.200000e+00	2.461475e-03	
149	-2.500000e-01	-1.200000e+00	2.845063e-03	
150	-3.000000e-01	-1.200000e+00	3.142551e-03	
151	-3.500000e-01	-1.200000e+00	3.359795e-03	
152	-4.000000e-01	-1.200000e+00	3.512182e-03	
153	-4.500000e-01	-1.200000e+00	3.621991e-03	
154	-5.000000e-01	-1.200000e+00	3.707724e-03	
155	-5.500000e-01	-1.200000e+00	3.780335e-03	
156	-6.000000e-01	-1.200000e+00	3.845549e-03	
157	-6.500000e-01	-1.200000e+00	3.906358e-03	
158	-7.000000e-01	-1.200000e+00	3.964393e-03	
159	-7.500000e-01	-1.200000e+00	4.020594e-03	
160	-8.000000e-01	-1.200000e+00	4.075531e-03	
161	-8.500000e-01	-1.200000e+00	4.129568e-03	
162	-9.000000e-01	-1.200000e+00	4.182944e-03	
163	-9.500000e-01	-1.200000e+00	4.235822e-03	
164	-1.000000e+00	-1.200000e+00	4.288316e-03	
165	-1.050000e+00	-1.200000e+00	4.340509e-03	
166	-1.100000e+00	-1.200000e+00	4.392460e-03	
167	-1.150000e+00	-1.200000e+00	4.444214e-03	
168	-1.200000e+00	-1.200000e+00	4.495803e-03	
169	-1.250000e+00	-1.200000e+00	4.547255e-03	
170	-1.300000e+00	-1.200000e+00	4.598586e-03	

Index   sweep           v(1)            vds#branch      
--------------------------------------------------------------------------------
171	-1.350000e+00	-1.200000e+00	4.649814e-03	
172	-1.400000e+00	-1.200000e+00	4.700948e-03	
173	-1.450000e+00	-1.200000e+00	4.751999e-03	
174	-1.500000e+00	-1.200000e+00	4.802978e-03	
175	-1.550000e+00	-1.200000e+00	4.853900e-03	
176	-1.600000e+00	-1.200000e+00	4.904796e-03	
177	-1.650000e+00	-1.200000e+00	4.955731e-03	
178	-1.700000e+00	-1.200000e+00	5.006842e-03	
179	-1.750000e+00	-1.200000e+00	5.058402e-03	
180	0.000000e+00	-1.500000e+00	-9.565718e-17	
181	-5.000000e-02	-1.500000e+00	8.608964e-04	
182	-1.000000e-01	-1.500000e+00	1.640863e-03	
183	-1.500000e-01	-1.500000e+00	2.343119e-03	
184	-2.000000e-01	-1.500000e+00	2.970577e-03	
185	-2.500000e-01	-1.500000e+00	3.525644e-03	
186	-3.000000e-01	-1.500000e+00	4.009979e-03	
187	-3.500000e-01	-1.500000e+00	4.424207e-03	
188	-4.000000e-01	-1.500000e+00	4.767994e-03	
189	-4.500000e-01	-1.500000e+00	5.041645e-03	
190	-5.000000e-01	-1.500000e+00	5.250304e-03	
191	-5.500000e-01	-1.500000e+00	5.406945e-03	
192	-6.000000e-01	-1.500000e+00	5.528132e-03	
193	-6.500000e-01	-1.500000e+00	5.627452e-03	
194	-7.000000e-01	-1.500000e+00	5.713609e-03	
195	-7.500000e-01	-1.500000e+00	5.791666e-03	
196	-8.000000e-01	-1.500000e+00	5.864536e-03	
197	-8.500000e-01	-1.500000e+00	5.933936e-03	
198	-9.000000e-01	-1.500000e+00	6.000919e-03	
199	-9.500000e-01	-1.500000e+00	6.066155e-03	
200	-1.000000e+00	-1.500000e+00	6.130087e-03	
201	-1.050000e+00	-1.500000e+00	6.193015e-03	
202	-1.100000e+00	-1.500000e+00	6.255152e-03	
203	-1.150000e+00	-1.500000e+00	6.316647e-03	
204	-1.200000e+00	-1.500000e+00	6.377611e-03	
205	-1.250000e+00	-1.500000e+00	6.438129e-03	
206	-1.300000e+00	-1.500000e+00	6.498261e-03	
207	-1.350000e+00	-1.500000e+00	6.558055e-03	
208	-1.400000e+00	-1.500000e+00	6.617550e-03	
209	-1.450000e+00	-1.500000e+00	6.676773e-03	
210	-1.500000e+00	-1.500000e+00	6.735749e-03	
211	-1.550000e+00	-1.500000e+00	6.794496e-03	
212	-1.600000e+00	-1.500000e+00	6.853031e-03	
213	-1.650000e+00	-1.500000e+00	6.911374e-03	
214	-1.700000e+00	-1.500000e+00	6.969558e-03	
215	-1.750000e+00	-1.500000e+00	7.027645e-03	

CPU time since last call: 0.460 seconds.

Total CPU time: 0.460 seconds.

Current dynamic memory usage = 188416,
Dynamic memory limit = -18074808.

