
Circuit: ** NMOSFET: Benchmarking Implementation of BSIM4.6.1 by Mohan V. Dunga 12/13/2006.

Circuit: ** NMOSFET: Benchmarking Implementation of BSIM4.6.1 by Mohan V. Dunga 12/13/2006.
Date: Thu Jul 31 17:05:34  2008


** NMOSFET: Benchmarking Implementation of BSIM4.6.1 by Mohan V. Dunga 12/13/2006.
DC transfer characteristic  Thu Jul 31 17:05:34  2008
--------------------------------------------------------------------------------
Index   sweep           v(2)            vds#branch      
--------------------------------------------------------------------------------
0	-6.00000e-01	1.000000e-01	-1.43548e-08	
1	-5.80000e-01	1.000000e-01	-1.25014e-08	
2	-5.60000e-01	1.000000e-01	-1.08687e-08	
3	-5.40000e-01	1.000000e-01	-9.43198e-09	
4	-5.20000e-01	1.000000e-01	-8.16942e-09	
5	-5.00000e-01	1.000000e-01	-7.06142e-09	
6	-4.80000e-01	1.000000e-01	-6.09054e-09	
7	-4.60000e-01	1.000000e-01	-5.24126e-09	
8	-4.40000e-01	1.000000e-01	-4.49983e-09	
9	-4.20000e-01	1.000000e-01	-3.85416e-09	
10	-4.00000e-01	1.000000e-01	-3.29368e-09	
11	-3.80000e-01	1.000000e-01	-2.80942e-09	
12	-3.60000e-01	1.000000e-01	-2.39397e-09	
13	-3.40000e-01	1.000000e-01	-2.04179e-09	
14	-3.20000e-01	1.000000e-01	-1.74953e-09	
15	-3.00000e-01	1.000000e-01	-1.51678e-09	
16	-2.80000e-01	1.000000e-01	-1.34727e-09	
17	-2.60000e-01	1.000000e-01	-1.25087e-09	
18	-2.40000e-01	1.000000e-01	-1.24673e-09	
19	-2.20000e-01	1.000000e-01	-1.36848e-09	
20	-2.00000e-01	1.000000e-01	-1.67230e-09	
21	-1.80000e-01	1.000000e-01	-2.24995e-09	
22	-1.60000e-01	1.000000e-01	-3.24908e-09	
23	-1.40000e-01	1.000000e-01	-4.90529e-09	
24	-1.20000e-01	1.000000e-01	-7.59200e-09	
25	-1.00000e-01	1.000000e-01	-1.18978e-08	
26	-8.00000e-02	1.000000e-01	-1.87455e-08	
27	-6.00000e-02	1.000000e-01	-2.95725e-08	
28	-4.00000e-02	1.000000e-01	-4.66031e-08	
29	-2.00000e-02	1.000000e-01	-7.32515e-08	
30	2.844947e-16	1.000000e-01	-1.14709e-07	
31	2.000000e-02	1.000000e-01	-1.78787e-07	
32	4.000000e-02	1.000000e-01	-2.77097e-07	
33	6.000000e-02	1.000000e-01	-4.26677e-07	
34	8.000000e-02	1.000000e-01	-6.52191e-07	
35	1.000000e-01	1.000000e-01	-9.88852e-07	
36	1.200000e-01	1.000000e-01	-1.48628e-06	
37	1.400000e-01	1.000000e-01	-2.21354e-06	
38	1.600000e-01	1.000000e-01	-3.26565e-06	
39	1.800000e-01	1.000000e-01	-4.77169e-06	
40	2.000000e-01	1.000000e-01	-6.90412e-06	
41	2.200000e-01	1.000000e-01	-9.88809e-06	
42	2.400000e-01	1.000000e-01	-1.40076e-05	
43	2.600000e-01	1.000000e-01	-1.96039e-05	
44	2.800000e-01	1.000000e-01	-2.70604e-05	
45	3.000000e-01	1.000000e-01	-3.67690e-05	
46	3.200000e-01	1.000000e-01	-4.90771e-05	
47	3.400000e-01	1.000000e-01	-6.42230e-05	
48	3.600000e-01	1.000000e-01	-8.22702e-05	
49	3.800000e-01	1.000000e-01	-1.03074e-04	
50	4.000000e-01	1.000000e-01	-1.26316e-04	
51	4.200000e-01	1.000000e-01	-1.51551e-04	
52	4.400000e-01	1.000000e-01	-1.78286e-04	
53	4.600000e-01	1.000000e-01	-2.06037e-04	
54	4.800000e-01	1.000000e-01	-2.34367e-04	

Index   sweep           v(2)            vds#branch      
--------------------------------------------------------------------------------
55	5.000000e-01	1.000000e-01	-2.62909e-04	
56	5.200000e-01	1.000000e-01	-2.91366e-04	
57	5.400000e-01	1.000000e-01	-3.19504e-04	
58	5.600000e-01	1.000000e-01	-3.47148e-04	
59	5.800000e-01	1.000000e-01	-3.74169e-04	
60	6.000000e-01	1.000000e-01	-4.00476e-04	
61	6.200000e-01	1.000000e-01	-4.26008e-04	
62	6.400000e-01	1.000000e-01	-4.50725e-04	
63	6.600000e-01	1.000000e-01	-4.74607e-04	
64	6.800000e-01	1.000000e-01	-4.97646e-04	
65	7.000000e-01	1.000000e-01	-5.19844e-04	
66	7.200000e-01	1.000000e-01	-5.41208e-04	
67	7.400000e-01	1.000000e-01	-5.61752e-04	
68	7.600000e-01	1.000000e-01	-5.81493e-04	
69	7.800000e-01	1.000000e-01	-6.00451e-04	
70	8.000000e-01	1.000000e-01	-6.18646e-04	
71	8.200000e-01	1.000000e-01	-6.36101e-04	
72	8.400000e-01	1.000000e-01	-6.52837e-04	
73	8.600000e-01	1.000000e-01	-6.68879e-04	
74	8.800000e-01	1.000000e-01	-6.84247e-04	
75	9.000000e-01	1.000000e-01	-6.98965e-04	
76	9.200000e-01	1.000000e-01	-7.13055e-04	
77	9.400000e-01	1.000000e-01	-7.26538e-04	
78	9.600000e-01	1.000000e-01	-7.39435e-04	
79	9.800000e-01	1.000000e-01	-7.51767e-04	
80	1.000000e+00	1.000000e-01	-7.63554e-04	
81	1.020000e+00	1.000000e-01	-7.74814e-04	
82	1.040000e+00	1.000000e-01	-7.85568e-04	
83	1.060000e+00	1.000000e-01	-7.95832e-04	
84	1.080000e+00	1.000000e-01	-8.05624e-04	
85	1.100000e+00	1.000000e-01	-8.14962e-04	
86	1.120000e+00	1.000000e-01	-8.23861e-04	
87	1.140000e+00	1.000000e-01	-8.32336e-04	
88	1.160000e+00	1.000000e-01	-8.40404e-04	
89	1.180000e+00	1.000000e-01	-8.48077e-04	
90	1.200000e+00	1.000000e-01	-8.55371e-04	
91	-6.00000e-01	1.000000e-01	-1.43630e-08	
92	-5.80000e-01	1.000000e-01	-1.25096e-08	
93	-5.60000e-01	1.000000e-01	-1.08767e-08	
94	-5.40000e-01	1.000000e-01	-9.43990e-09	
95	-5.20000e-01	1.000000e-01	-8.17713e-09	
96	-5.00000e-01	1.000000e-01	-7.06880e-09	
97	-4.80000e-01	1.000000e-01	-6.09740e-09	
98	-4.60000e-01	1.000000e-01	-5.24728e-09	
99	-4.40000e-01	1.000000e-01	-4.50451e-09	
100	-4.20000e-01	1.000000e-01	-3.85669e-09	
101	-4.00000e-01	1.000000e-01	-3.29279e-09	
102	-3.80000e-01	1.000000e-01	-2.80304e-09	
103	-3.60000e-01	1.000000e-01	-2.37884e-09	
104	-3.40000e-01	1.000000e-01	-2.01268e-09	
105	-3.20000e-01	1.000000e-01	-1.69807e-09	
106	-3.00000e-01	1.000000e-01	-1.42965e-09	
107	-2.80000e-01	1.000000e-01	-1.20321e-09	
108	-2.60000e-01	1.000000e-01	-1.01596e-09	
109	-2.40000e-01	1.000000e-01	-8.66949e-10	
110	-2.20000e-01	1.000000e-01	-7.57818e-10	
111	-2.00000e-01	1.000000e-01	-6.94020e-10	
112	-1.80000e-01	1.000000e-01	-6.86887e-10	

Index   sweep           v(2)            vds#branch      
--------------------------------------------------------------------------------
113	-1.60000e-01	1.000000e-01	-7.56970e-10	
114	-1.40000e-01	1.000000e-01	-9.39462e-10	
115	-1.20000e-01	1.000000e-01	-1.29295e-09	
116	-1.00000e-01	1.000000e-01	-1.91343e-09	
117	-8.00000e-02	1.000000e-01	-2.95675e-09	
118	-6.00000e-02	1.000000e-01	-4.67422e-09	
119	-4.00000e-02	1.000000e-01	-7.46872e-09	
120	-2.00000e-02	1.000000e-01	-1.19827e-08	
121	2.844947e-16	1.000000e-01	-1.92341e-08	
122	2.000000e-02	1.000000e-01	-3.08252e-08	
123	4.000000e-02	1.000000e-01	-4.92565e-08	
124	6.000000e-02	1.000000e-01	-7.83939e-08	
125	8.000000e-02	1.000000e-01	-1.24146e-07	
126	1.000000e-01	1.000000e-01	-1.95430e-07	
127	1.200000e-01	1.000000e-01	-3.05510e-07	
128	1.400000e-01	1.000000e-01	-4.73824e-07	
129	1.600000e-01	1.000000e-01	-7.28414e-07	
130	1.800000e-01	1.000000e-01	-1.10913e-06	
131	2.000000e-01	1.000000e-01	-1.67179e-06	
132	2.200000e-01	1.000000e-01	-2.49365e-06	
133	2.400000e-01	1.000000e-01	-3.68022e-06	
134	2.600000e-01	1.000000e-01	-5.37350e-06	
135	2.800000e-01	1.000000e-01	-7.76075e-06	
136	3.000000e-01	1.000000e-01	-1.10815e-05	
137	3.200000e-01	1.000000e-01	-1.56289e-05	
138	3.400000e-01	1.000000e-01	-2.17403e-05	
139	3.600000e-01	1.000000e-01	-2.97685e-05	
140	3.800000e-01	1.000000e-01	-4.00341e-05	
141	4.000000e-01	1.000000e-01	-5.27743e-05	
142	4.200000e-01	1.000000e-01	-6.80827e-05	
143	4.400000e-01	1.000000e-01	-8.58756e-05	
144	4.600000e-01	1.000000e-01	-1.05900e-04	
145	4.800000e-01	1.000000e-01	-1.27780e-04	
146	5.000000e-01	1.000000e-01	-1.51085e-04	
147	5.200000e-01	1.000000e-01	-1.75383e-04	
148	5.400000e-01	1.000000e-01	-2.00285e-04	
149	5.600000e-01	1.000000e-01	-2.25457e-04	
150	5.800000e-01	1.000000e-01	-2.50628e-04	
151	6.000000e-01	1.000000e-01	-2.75585e-04	
152	6.200000e-01	1.000000e-01	-3.00166e-04	
153	6.400000e-01	1.000000e-01	-3.24252e-04	
154	6.600000e-01	1.000000e-01	-3.47757e-04	
155	6.800000e-01	1.000000e-01	-3.70621e-04	
156	7.000000e-01	1.000000e-01	-3.92808e-04	
157	7.200000e-01	1.000000e-01	-4.14295e-04	
158	7.400000e-01	1.000000e-01	-4.35071e-04	
159	7.600000e-01	1.000000e-01	-4.55135e-04	
160	7.800000e-01	1.000000e-01	-4.74491e-04	
161	8.000000e-01	1.000000e-01	-4.93148e-04	
162	8.200000e-01	1.000000e-01	-5.11120e-04	
163	8.400000e-01	1.000000e-01	-5.28421e-04	
164	8.600000e-01	1.000000e-01	-5.45067e-04	
165	8.800000e-01	1.000000e-01	-5.61076e-04	
166	9.000000e-01	1.000000e-01	-5.76466e-04	
167	9.200000e-01	1.000000e-01	-5.91255e-04	
168	9.400000e-01	1.000000e-01	-6.05462e-04	
169	9.600000e-01	1.000000e-01	-6.19104e-04	
170	9.800000e-01	1.000000e-01	-6.32200e-04	

Index   sweep           v(2)            vds#branch      
--------------------------------------------------------------------------------
171	1.000000e+00	1.000000e-01	-6.44768e-04	
172	1.020000e+00	1.000000e-01	-6.56824e-04	
173	1.040000e+00	1.000000e-01	-6.68386e-04	
174	1.060000e+00	1.000000e-01	-6.79470e-04	
175	1.080000e+00	1.000000e-01	-6.90092e-04	
176	1.100000e+00	1.000000e-01	-7.00268e-04	
177	1.120000e+00	1.000000e-01	-7.10012e-04	
178	1.140000e+00	1.000000e-01	-7.19339e-04	
179	1.160000e+00	1.000000e-01	-7.28263e-04	
180	1.180000e+00	1.000000e-01	-7.36797e-04	
181	1.200000e+00	1.000000e-01	-7.44954e-04	
182	-6.00000e-01	1.000000e-01	-1.43866e-08	
183	-5.80000e-01	1.000000e-01	-1.25332e-08	
184	-5.60000e-01	1.000000e-01	-1.09003e-08	
185	-5.40000e-01	1.000000e-01	-9.46347e-09	
186	-5.20000e-01	1.000000e-01	-8.20068e-09	
187	-5.00000e-01	1.000000e-01	-7.09232e-09	
188	-4.80000e-01	1.000000e-01	-6.12085e-09	
189	-4.60000e-01	1.000000e-01	-5.27064e-09	
190	-4.40000e-01	1.000000e-01	-4.52773e-09	
191	-4.20000e-01	1.000000e-01	-3.87966e-09	
192	-4.00000e-01	1.000000e-01	-3.31537e-09	
193	-3.80000e-01	1.000000e-01	-2.82498e-09	
194	-3.60000e-01	1.000000e-01	-2.39975e-09	
195	-3.40000e-01	1.000000e-01	-2.03190e-09	
196	-3.20000e-01	1.000000e-01	-1.71456e-09	
197	-3.00000e-01	1.000000e-01	-1.44169e-09	
198	-2.80000e-01	1.000000e-01	-1.20802e-09	
199	-2.60000e-01	1.000000e-01	-1.00905e-09	
200	-2.40000e-01	1.000000e-01	-8.41016e-10	
201	-2.20000e-01	1.000000e-01	-7.01020e-10	
202	-2.00000e-01	1.000000e-01	-5.87170e-10	
203	-1.80000e-01	1.000000e-01	-4.98904e-10	
204	-1.60000e-01	1.000000e-01	-4.37554e-10	
205	-1.40000e-01	1.000000e-01	-4.07292e-10	
206	-1.20000e-01	1.000000e-01	-4.16712e-10	
207	-1.00000e-01	1.000000e-01	-4.81441e-10	
208	-8.00000e-02	1.000000e-01	-6.28419e-10	
209	-6.00000e-02	1.000000e-01	-9.02883e-10	
210	-4.00000e-02	1.000000e-01	-1.37970e-09	
211	-2.00000e-02	1.000000e-01	-2.18170e-09	
212	2.844947e-16	1.000000e-01	-3.50909e-09	
213	2.000000e-02	1.000000e-01	-5.68646e-09	
214	4.000000e-02	1.000000e-01	-9.23708e-09	
215	6.000000e-02	1.000000e-01	-1.49994e-08	
216	8.000000e-02	1.000000e-01	-2.43072e-08	
217	1.000000e-01	1.000000e-01	-3.92641e-08	
218	1.200000e-01	1.000000e-01	-6.31528e-08	
219	1.400000e-01	1.000000e-01	-1.01038e-07	
220	1.600000e-01	1.000000e-01	-1.60630e-07	
221	1.800000e-01	1.000000e-01	-2.53480e-07	
222	2.000000e-01	1.000000e-01	-3.96619e-07	
223	2.200000e-01	1.000000e-01	-6.14727e-07	
224	2.400000e-01	1.000000e-01	-9.42995e-07	
225	2.600000e-01	1.000000e-01	-1.43085e-06	
226	2.800000e-01	1.000000e-01	-2.14679e-06	
227	3.000000e-01	1.000000e-01	-3.18454e-06	
228	3.200000e-01	1.000000e-01	-4.67052e-06	

Index   sweep           v(2)            vds#branch      
--------------------------------------------------------------------------------
229	3.400000e-01	1.000000e-01	-6.77188e-06	
230	3.600000e-01	1.000000e-01	-9.70221e-06	
231	3.800000e-01	1.000000e-01	-1.37217e-05	
232	4.000000e-01	1.000000e-01	-1.91310e-05	
233	4.200000e-01	1.000000e-01	-2.62470e-05	
234	4.400000e-01	1.000000e-01	-3.53622e-05	
235	4.600000e-01	1.000000e-01	-4.66920e-05	
236	4.800000e-01	1.000000e-01	-6.03219e-05	
237	5.000000e-01	1.000000e-01	-7.61771e-05	
238	5.200000e-01	1.000000e-01	-9.40304e-05	
239	5.400000e-01	1.000000e-01	-1.13546e-04	
240	5.600000e-01	1.000000e-01	-1.34341e-04	
241	5.800000e-01	1.000000e-01	-1.56033e-04	
242	6.000000e-01	1.000000e-01	-1.78277e-04	
243	6.200000e-01	1.000000e-01	-2.00781e-04	
244	6.400000e-01	1.000000e-01	-2.23305e-04	
245	6.600000e-01	1.000000e-01	-2.45662e-04	
246	6.800000e-01	1.000000e-01	-2.67709e-04	
247	7.000000e-01	1.000000e-01	-2.89342e-04	
248	7.200000e-01	1.000000e-01	-3.10484e-04	
249	7.400000e-01	1.000000e-01	-3.31083e-04	
250	7.600000e-01	1.000000e-01	-3.51105e-04	
251	7.800000e-01	1.000000e-01	-3.70528e-04	
252	8.000000e-01	1.000000e-01	-3.89342e-04	
253	8.200000e-01	1.000000e-01	-4.07545e-04	
254	8.400000e-01	1.000000e-01	-4.25139e-04	
255	8.600000e-01	1.000000e-01	-4.42131e-04	
256	8.800000e-01	1.000000e-01	-4.58531e-04	
257	9.000000e-01	1.000000e-01	-4.74350e-04	
258	9.200000e-01	1.000000e-01	-4.89602e-04	
259	9.400000e-01	1.000000e-01	-5.04300e-04	
260	9.600000e-01	1.000000e-01	-5.18460e-04	
261	9.800000e-01	1.000000e-01	-5.32097e-04	
262	1.000000e+00	1.000000e-01	-5.45225e-04	
263	1.020000e+00	1.000000e-01	-5.57859e-04	
264	1.040000e+00	1.000000e-01	-5.70014e-04	
265	1.060000e+00	1.000000e-01	-5.81706e-04	
266	1.080000e+00	1.000000e-01	-5.92948e-04	
267	1.100000e+00	1.000000e-01	-6.03754e-04	
268	1.120000e+00	1.000000e-01	-6.14138e-04	
269	1.140000e+00	1.000000e-01	-6.24113e-04	
270	1.160000e+00	1.000000e-01	-6.33692e-04	
271	1.180000e+00	1.000000e-01	-6.42887e-04	
272	1.200000e+00	1.000000e-01	-6.51711e-04	
273	-6.00000e-01	1.000000e-01	-1.44403e-08	
274	-5.80000e-01	1.000000e-01	-1.25869e-08	
275	-5.60000e-01	1.000000e-01	-1.09540e-08	
276	-5.40000e-01	1.000000e-01	-9.51721e-09	
277	-5.20000e-01	1.000000e-01	-8.25441e-09	
278	-5.00000e-01	1.000000e-01	-7.14605e-09	
279	-4.80000e-01	1.000000e-01	-6.17458e-09	
280	-4.60000e-01	1.000000e-01	-5.32435e-09	
281	-4.40000e-01	1.000000e-01	-4.58142e-09	
282	-4.20000e-01	1.000000e-01	-3.93332e-09	
283	-4.00000e-01	1.000000e-01	-3.36897e-09	
284	-3.80000e-01	1.000000e-01	-2.87850e-09	
285	-3.60000e-01	1.000000e-01	-2.45312e-09	
286	-3.40000e-01	1.000000e-01	-2.08502e-09	

Index   sweep           v(2)            vds#branch      
--------------------------------------------------------------------------------
287	-3.20000e-01	1.000000e-01	-1.76728e-09	
288	-3.00000e-01	1.000000e-01	-1.49376e-09	
289	-2.80000e-01	1.000000e-01	-1.25903e-09	
290	-2.60000e-01	1.000000e-01	-1.05829e-09	
291	-2.40000e-01	1.000000e-01	-8.87371e-10	
292	-2.20000e-01	1.000000e-01	-7.42627e-10	
293	-2.00000e-01	1.000000e-01	-6.20978e-10	
294	-1.80000e-01	1.000000e-01	-5.19907e-10	
295	-1.60000e-01	1.000000e-01	-4.37539e-10	
296	-1.40000e-01	1.000000e-01	-3.72789e-10	
297	-1.20000e-01	1.000000e-01	-3.25650e-10	
298	-1.00000e-01	1.000000e-01	-2.97677e-10	
299	-8.00000e-02	1.000000e-01	-2.92828e-10	
300	-6.00000e-02	1.000000e-01	-3.18868e-10	
301	-4.00000e-02	1.000000e-01	-3.89697e-10	
302	-2.00000e-02	1.000000e-01	-5.29202e-10	
303	2.844947e-16	1.000000e-01	-7.77586e-10	
304	2.000000e-02	1.000000e-01	-1.20173e-09	
305	4.000000e-02	1.000000e-01	-1.91207e-09	
306	6.000000e-02	1.000000e-01	-3.08989e-09	
307	8.000000e-02	1.000000e-01	-5.03127e-09	
308	1.000000e-01	1.000000e-01	-8.21694e-09	
309	1.200000e-01	1.000000e-01	-1.34214e-08	
310	1.400000e-01	1.000000e-01	-2.18854e-08	
311	1.600000e-01	1.000000e-01	-3.55796e-08	
312	1.800000e-01	1.000000e-01	-5.75967e-08	
313	2.000000e-01	1.000000e-01	-9.27280e-08	
314	2.200000e-01	1.000000e-01	-1.48289e-07	
315	2.400000e-01	1.000000e-01	-2.35266e-07	
316	2.600000e-01	1.000000e-01	-3.69874e-07	
317	2.800000e-01	1.000000e-01	-5.75624e-07	
318	3.000000e-01	1.000000e-01	-8.86014e-07	
319	3.200000e-01	1.000000e-01	-1.34804e-06	
320	3.400000e-01	1.000000e-01	-2.02676e-06	
321	3.600000e-01	1.000000e-01	-3.01071e-06	
322	3.800000e-01	1.000000e-01	-4.41831e-06	
323	4.000000e-01	1.000000e-01	-6.40567e-06	
324	4.200000e-01	1.000000e-01	-9.17187e-06	
325	4.400000e-01	1.000000e-01	-1.29593e-05	
326	4.600000e-01	1.000000e-01	-1.80443e-05	
327	4.800000e-01	1.000000e-01	-2.47135e-05	
328	5.000000e-01	1.000000e-01	-3.32249e-05	
329	5.200000e-01	1.000000e-01	-4.37578e-05	
330	5.400000e-01	1.000000e-01	-5.63671e-05	
331	5.600000e-01	1.000000e-01	-7.09606e-05	
332	5.800000e-01	1.000000e-01	-8.73135e-05	
333	6.000000e-01	1.000000e-01	-1.05113e-04	
334	6.200000e-01	1.000000e-01	-1.24014e-04	
335	6.400000e-01	1.000000e-01	-1.43678e-04	
336	6.600000e-01	1.000000e-01	-1.63805e-04	
337	6.800000e-01	1.000000e-01	-1.84143e-04	
338	7.000000e-01	1.000000e-01	-2.04487e-04	
339	7.200000e-01	1.000000e-01	-2.24678e-04	
340	7.400000e-01	1.000000e-01	-2.44595e-04	
341	7.600000e-01	1.000000e-01	-2.64148e-04	
342	7.800000e-01	1.000000e-01	-2.83273e-04	
343	8.000000e-01	1.000000e-01	-3.01926e-04	
344	8.200000e-01	1.000000e-01	-3.20077e-04	

Index   sweep           v(2)            vds#branch      
--------------------------------------------------------------------------------
345	8.400000e-01	1.000000e-01	-3.37708e-04	
346	8.600000e-01	1.000000e-01	-3.54811e-04	
347	8.800000e-01	1.000000e-01	-3.71383e-04	
348	9.000000e-01	1.000000e-01	-3.87425e-04	
349	9.200000e-01	1.000000e-01	-4.02944e-04	
350	9.400000e-01	1.000000e-01	-4.17946e-04	
351	9.600000e-01	1.000000e-01	-4.32441e-04	
352	9.800000e-01	1.000000e-01	-4.46441e-04	
353	1.000000e+00	1.000000e-01	-4.59956e-04	
354	1.020000e+00	1.000000e-01	-4.72999e-04	
355	1.040000e+00	1.000000e-01	-4.85583e-04	
356	1.060000e+00	1.000000e-01	-4.97719e-04	
357	1.080000e+00	1.000000e-01	-5.09420e-04	
358	1.100000e+00	1.000000e-01	-5.20699e-04	
359	1.120000e+00	1.000000e-01	-5.31567e-04	
360	1.140000e+00	1.000000e-01	-5.42037e-04	
361	1.160000e+00	1.000000e-01	-5.52121e-04	
362	1.180000e+00	1.000000e-01	-5.61829e-04	
363	1.200000e+00	1.000000e-01	-5.71172e-04	
364	-6.00000e-01	1.000000e-01	-1.45435e-08	
365	-5.80000e-01	1.000000e-01	-1.26901e-08	
366	-5.60000e-01	1.000000e-01	-1.10572e-08	
367	-5.40000e-01	1.000000e-01	-9.62037e-09	
368	-5.20000e-01	1.000000e-01	-8.35758e-09	
369	-5.00000e-01	1.000000e-01	-7.24921e-09	
370	-4.80000e-01	1.000000e-01	-6.27774e-09	
371	-4.60000e-01	1.000000e-01	-5.42751e-09	
372	-4.40000e-01	1.000000e-01	-4.68457e-09	
373	-4.20000e-01	1.000000e-01	-4.03647e-09	
374	-4.00000e-01	1.000000e-01	-3.47211e-09	
375	-3.80000e-01	1.000000e-01	-2.98162e-09	
376	-3.60000e-01	1.000000e-01	-2.55622e-09	
377	-3.40000e-01	1.000000e-01	-2.18808e-09	
378	-3.20000e-01	1.000000e-01	-1.87028e-09	
379	-3.00000e-01	1.000000e-01	-1.59665e-09	
380	-2.80000e-01	1.000000e-01	-1.36174e-09	
381	-2.60000e-01	1.000000e-01	-1.16071e-09	
382	-2.40000e-01	1.000000e-01	-9.89295e-10	
383	-2.20000e-01	1.000000e-01	-8.43736e-10	
384	-2.00000e-01	1.000000e-01	-7.20735e-10	
385	-1.80000e-01	1.000000e-01	-6.17424e-10	
386	-1.60000e-01	1.000000e-01	-5.31343e-10	
387	-1.40000e-01	1.000000e-01	-4.60442e-10	
388	-1.20000e-01	1.000000e-01	-4.03112e-10	
389	-1.00000e-01	1.000000e-01	-3.58262e-10	
390	-8.00000e-02	1.000000e-01	-3.25475e-10	
391	-6.00000e-02	1.000000e-01	-3.05286e-10	
392	-4.00000e-02	1.000000e-01	-2.99671e-10	
393	-2.00000e-02	1.000000e-01	-3.12866e-10	
394	2.844947e-16	1.000000e-01	-3.52756e-10	
395	2.000000e-02	1.000000e-01	-4.33185e-10	
396	4.000000e-02	1.000000e-01	-5.77790e-10	
397	6.000000e-02	1.000000e-01	-8.26344e-10	
398	8.000000e-02	1.000000e-01	-1.24518e-09	
399	1.000000e-01	1.000000e-01	-1.94418e-09	
400	1.200000e-01	1.000000e-01	-3.10333e-09	
401	1.400000e-01	1.000000e-01	-5.01870e-09	
402	1.600000e-01	1.000000e-01	-8.17516e-09	

Index   sweep           v(2)            vds#branch      
--------------------------------------------------------------------------------
403	1.800000e-01	1.000000e-01	-1.33581e-08	
404	2.000000e-01	1.000000e-01	-2.18293e-08	
405	2.200000e-01	1.000000e-01	-3.55962e-08	
406	2.400000e-01	1.000000e-01	-5.78161e-08	
407	2.600000e-01	1.000000e-01	-9.33877e-08	
408	2.800000e-01	1.000000e-01	-1.49792e-07	
409	3.000000e-01	1.000000e-01	-2.38247e-07	
410	3.200000e-01	1.000000e-01	-3.75258e-07	
411	3.400000e-01	1.000000e-01	-5.84659e-07	
412	3.600000e-01	1.000000e-01	-9.00151e-07	
413	3.800000e-01	1.000000e-01	-1.36852e-06	
414	4.000000e-01	1.000000e-01	-2.05424e-06	
415	4.200000e-01	1.000000e-01	-3.04484e-06	
416	4.400000e-01	1.000000e-01	-4.45735e-06	
417	4.600000e-01	1.000000e-01	-6.44461e-06	
418	4.800000e-01	1.000000e-01	-9.19949e-06	
419	5.000000e-01	1.000000e-01	-1.29531e-05	
420	5.200000e-01	1.000000e-01	-1.79631e-05	
421	5.400000e-01	1.000000e-01	-2.44874e-05	
422	5.600000e-01	1.000000e-01	-3.27450e-05	
423	5.800000e-01	1.000000e-01	-4.28693e-05	
424	6.000000e-01	1.000000e-01	-5.48709e-05	
425	6.200000e-01	1.000000e-01	-6.86269e-05	
426	6.400000e-01	1.000000e-01	-8.39043e-05	
427	6.600000e-01	1.000000e-01	-1.00407e-04	
428	6.800000e-01	1.000000e-01	-1.17820e-04	
429	7.000000e-01	1.000000e-01	-1.35851e-04	
430	7.200000e-01	1.000000e-01	-1.54241e-04	
431	7.400000e-01	1.000000e-01	-1.72777e-04	
432	7.600000e-01	1.000000e-01	-1.91289e-04	
433	7.800000e-01	1.000000e-01	-2.09643e-04	
434	8.000000e-01	1.000000e-01	-2.27741e-04	
435	8.200000e-01	1.000000e-01	-2.45508e-04	
436	8.400000e-01	1.000000e-01	-2.62893e-04	
437	8.600000e-01	1.000000e-01	-2.79859e-04	
438	8.800000e-01	1.000000e-01	-2.96383e-04	
439	9.000000e-01	1.000000e-01	-3.12450e-04	
440	9.200000e-01	1.000000e-01	-3.28052e-04	
441	9.400000e-01	1.000000e-01	-3.43188e-04	
442	9.600000e-01	1.000000e-01	-3.57859e-04	
443	9.800000e-01	1.000000e-01	-3.72070e-04	
444	1.000000e+00	1.000000e-01	-3.85828e-04	
445	1.020000e+00	1.000000e-01	-3.99140e-04	
446	1.040000e+00	1.000000e-01	-4.12016e-04	
447	1.060000e+00	1.000000e-01	-4.24464e-04	
448	1.080000e+00	1.000000e-01	-4.36496e-04	
449	1.100000e+00	1.000000e-01	-4.48121e-04	
450	1.120000e+00	1.000000e-01	-4.59350e-04	
451	1.140000e+00	1.000000e-01	-4.70194e-04	
452	1.160000e+00	1.000000e-01	-4.80661e-04	
453	1.180000e+00	1.000000e-01	-4.90764e-04	
454	1.200000e+00	1.000000e-01	-5.00511e-04	

CPU time since last call: 0.280 seconds.

Total CPU time: 0.280 seconds.

Current dynamic memory usage = 303104,
Dynamic memory limit = -23998888.

