
Circuit: ** NMOSFET: Benchmarking Implementation of BSIM4.6.1 by Mohan V. Dunga 12/13/2006.

Circuit: ** NMOSFET: Benchmarking Implementation of BSIM4.6.1 by Mohan V. Dunga 12/13/2006.
Date: Thu Jul 31 17:05:32  2008


** NMOSFET: Benchmarking Implementation of BSIM4.6.1 by Mohan V. Dunga 12/13/2006.
DC transfer characteristic  Thu Jul 31 17:05:32  2008
--------------------------------------------------------------------------------
Index   sweep           v(1)            vds#branch
--------------------------------------------------------------------------------
0	0.000000e+00	0.000000e+00	-2.87912e-44
1	2.000000e-02	0.000000e+00	-5.32752e-12
2	4.000000e-02	0.000000e+00	-9.50025e-12
3	6.000000e-02	0.000000e+00	-1.49854e-11
4	8.000000e-02	0.000000e+00	-2.29687e-11
5	1.000000e-01	0.000000e+00	-3.42003e-11
6	1.200000e-01	0.000000e+00	-4.94023e-11
7	1.400000e-01	0.000000e+00	-6.93721e-11
8	1.600000e-01	0.000000e+00	-9.50166e-11
9	1.800000e-01	0.000000e+00	-1.27373e-10
10	2.000000e-01	0.000000e+00	-1.67631e-10
11	2.200000e-01	0.000000e+00	-2.17149e-10
12	2.400000e-01	0.000000e+00	-2.77480e-10
13	2.600000e-01	0.000000e+00	-3.50396e-10
14	2.800000e-01	0.000000e+00	-4.37914e-10
15	3.000000e-01	0.000000e+00	-5.42330e-10
16	3.200000e-01	0.000000e+00	-6.66249e-10
17	3.400000e-01	0.000000e+00	-8.12630e-10
18	3.600000e-01	0.000000e+00	-9.84823e-10
19	3.800000e-01	0.000000e+00	-1.18662e-09
20	4.000000e-01	0.000000e+00	-1.42232e-09
21	4.200000e-01	0.000000e+00	-1.69675e-09
22	4.400000e-01	0.000000e+00	-2.01539e-09
23	4.600000e-01	0.000000e+00	-2.38440e-09
24	4.800000e-01	0.000000e+00	-2.81073e-09
25	5.000000e-01	0.000000e+00	-3.30218e-09
26	5.200000e-01	0.000000e+00	-3.86756e-09
27	5.400000e-01	0.000000e+00	-4.51674e-09
28	5.600000e-01	0.000000e+00	-5.26081e-09
29	5.800000e-01	0.000000e+00	-6.11223e-09
30	6.000000e-01	0.000000e+00	-7.08496e-09
31	6.200000e-01	0.000000e+00	-8.19465e-09
32	6.400000e-01	0.000000e+00	-9.45883e-09
33	6.600000e-01	0.000000e+00	-1.08971e-08
34	6.800000e-01	0.000000e+00	-1.25315e-08
35	7.000000e-01	0.000000e+00	-1.43865e-08
36	7.200000e-01	0.000000e+00	-1.64896e-08
37	7.400000e-01	0.000000e+00	-1.88715e-08
38	7.600000e-01	0.000000e+00	-2.15663e-08
39	7.800000e-01	0.000000e+00	-2.46123e-08
40	8.000000e-01	0.000000e+00	-2.80521e-08
41	8.200000e-01	0.000000e+00	-3.19333e-08
42	8.400000e-01	0.000000e+00	-3.63088e-08
43	8.600000e-01	0.000000e+00	-4.12375e-08
44	8.800000e-01	0.000000e+00	-4.67854e-08
45	9.000000e-01	0.000000e+00	-5.30254e-08
46	9.200000e-01	0.000000e+00	-6.00391e-08
47	9.400000e-01	0.000000e+00	-6.79170e-08
48	9.600000e-01	0.000000e+00	-7.67599e-08
49	9.800000e-01	0.000000e+00	-8.66796e-08
50	1.000000e+00	0.000000e+00	-9.78008e-08
51	1.020000e+00	0.000000e+00	-1.10262e-07
52	1.040000e+00	0.000000e+00	-1.24215e-07
53	1.060000e+00	0.000000e+00	-1.39833e-07
54	1.080000e+00	0.000000e+00	-1.57303e-07

Index   sweep           v(1)            vds#branch
--------------------------------------------------------------------------------
55	1.100000e+00	0.000000e+00	-1.76836e-07
56	1.120000e+00	0.000000e+00	-1.98665e-07
57	1.140000e+00	0.000000e+00	-2.23047e-07
58	1.160000e+00	0.000000e+00	-2.50269e-07
59	1.180000e+00	0.000000e+00	-2.80649e-07
60	1.200000e+00	0.000000e+00	-3.14538e-07
61	0.000000e+00	2.000000e-01	1.619626e-10
62	2.000000e-02	2.000000e-01	-1.12049e-08
63	4.000000e-02	2.000000e-01	-1.50696e-08
64	6.000000e-02	2.000000e-01	-1.65336e-08
65	8.000000e-02	2.000000e-01	-1.73704e-08
66	1.000000e-01	2.000000e-01	-1.80107e-08
67	1.200000e-01	2.000000e-01	-1.85727e-08
68	1.400000e-01	2.000000e-01	-1.90973e-08
69	1.600000e-01	2.000000e-01	-1.96015e-08
70	1.800000e-01	2.000000e-01	-2.00937e-08
71	2.000000e-01	2.000000e-01	-2.05784e-08
72	2.200000e-01	2.000000e-01	-2.10598e-08
73	2.400000e-01	2.000000e-01	-2.15409e-08
74	2.600000e-01	2.000000e-01	-2.20232e-08
75	2.800000e-01	2.000000e-01	-2.25078e-08
76	3.000000e-01	2.000000e-01	-2.29958e-08
77	3.200000e-01	2.000000e-01	-2.34881e-08
78	3.400000e-01	2.000000e-01	-2.39857e-08
79	3.600000e-01	2.000000e-01	-2.44897e-08
80	3.800000e-01	2.000000e-01	-2.50013e-08
81	4.000000e-01	2.000000e-01	-2.55217e-08
82	4.200000e-01	2.000000e-01	-2.60524e-08
83	4.400000e-01	2.000000e-01	-2.65950e-08
84	4.600000e-01	2.000000e-01	-2.71513e-08
85	4.800000e-01	2.000000e-01	-2.77234e-08
86	5.000000e-01	2.000000e-01	-2.83136e-08
87	5.200000e-01	2.000000e-01	-2.89244e-08
88	5.400000e-01	2.000000e-01	-2.95590e-08
89	5.600000e-01	2.000000e-01	-3.02206e-08
90	5.800000e-01	2.000000e-01	-3.09131e-08
91	6.000000e-01	2.000000e-01	-3.16408e-08
92	6.200000e-01	2.000000e-01	-3.24085e-08
93	6.400000e-01	2.000000e-01	-3.32216e-08
94	6.600000e-01	2.000000e-01	-3.40864e-08
95	6.800000e-01	2.000000e-01	-3.50098e-08
96	7.000000e-01	2.000000e-01	-3.59996e-08
97	7.200000e-01	2.000000e-01	-3.70647e-08
98	7.400000e-01	2.000000e-01	-3.82148e-08
99	7.600000e-01	2.000000e-01	-3.94611e-08
100	7.800000e-01	2.000000e-01	-4.08160e-08
101	8.000000e-01	2.000000e-01	-4.22935e-08
102	8.200000e-01	2.000000e-01	-4.39093e-08
103	8.400000e-01	2.000000e-01	-4.56808e-08
104	8.600000e-01	2.000000e-01	-4.76278e-08
105	8.800000e-01	2.000000e-01	-4.97722e-08
106	9.000000e-01	2.000000e-01	-5.21384e-08
107	9.200000e-01	2.000000e-01	-5.47541e-08
108	9.400000e-01	2.000000e-01	-5.76498e-08
109	9.600000e-01	2.000000e-01	-6.08598e-08
110	9.800000e-01	2.000000e-01	-6.44223e-08
111	1.000000e+00	2.000000e-01	-6.83800e-08
112	1.020000e+00	2.000000e-01	-7.27803e-08

Index   sweep           v(1)            vds#branch
--------------------------------------------------------------------------------
113	1.040000e+00	2.000000e-01	-7.76763e-08
114	1.060000e+00	2.000000e-01	-8.31270e-08
115	1.080000e+00	2.000000e-01	-8.91981e-08
116	1.100000e+00	2.000000e-01	-9.59629e-08
117	1.120000e+00	2.000000e-01	-1.03503e-07
118	1.140000e+00	2.000000e-01	-1.11908e-07
119	1.160000e+00	2.000000e-01	-1.21280e-07
120	1.180000e+00	2.000000e-01	-1.31731e-07
121	1.200000e+00	2.000000e-01	-1.43384e-07
122	0.000000e+00	4.000000e-01	2.512578e-09
123	2.000000e-02	4.000000e-01	-3.77208e-06
124	4.000000e-02	4.000000e-01	-5.28549e-06
125	6.000000e-02	4.000000e-01	-5.86497e-06
126	8.000000e-02	4.000000e-01	-6.16333e-06
127	1.000000e-01	4.000000e-01	-6.37308e-06
128	1.200000e-01	4.000000e-01	-6.54903e-06
129	1.400000e-01	4.000000e-01	-6.70965e-06
130	1.600000e-01	4.000000e-01	-6.86236e-06
131	1.800000e-01	4.000000e-01	-7.01061e-06
132	2.000000e-01	4.000000e-01	-7.15617e-06
133	2.200000e-01	4.000000e-01	-7.30006e-06
134	2.400000e-01	4.000000e-01	-7.44287e-06
135	2.600000e-01	4.000000e-01	-7.58499e-06
136	2.800000e-01	4.000000e-01	-7.72669e-06
137	3.000000e-01	4.000000e-01	-7.86816e-06
138	3.200000e-01	4.000000e-01	-8.00950e-06
139	3.400000e-01	4.000000e-01	-8.15083e-06
140	3.600000e-01	4.000000e-01	-8.29221e-06
141	3.800000e-01	4.000000e-01	-8.43369e-06
142	4.000000e-01	4.000000e-01	-8.57532e-06
143	4.200000e-01	4.000000e-01	-8.71714e-06
144	4.400000e-01	4.000000e-01	-8.85916e-06
145	4.600000e-01	4.000000e-01	-9.00141e-06
146	4.800000e-01	4.000000e-01	-9.14390e-06
147	5.000000e-01	4.000000e-01	-9.28666e-06
148	5.200000e-01	4.000000e-01	-9.42968e-06
149	5.400000e-01	4.000000e-01	-9.57299e-06
150	5.600000e-01	4.000000e-01	-9.71658e-06
151	5.800000e-01	4.000000e-01	-9.86046e-06
152	6.000000e-01	4.000000e-01	-1.00046e-05
153	6.200000e-01	4.000000e-01	-1.01491e-05
154	6.400000e-01	4.000000e-01	-1.02939e-05
155	6.600000e-01	4.000000e-01	-1.04390e-05
156	6.800000e-01	4.000000e-01	-1.05845e-05
157	7.000000e-01	4.000000e-01	-1.07302e-05
158	7.200000e-01	4.000000e-01	-1.08763e-05
159	7.400000e-01	4.000000e-01	-1.10227e-05
160	7.600000e-01	4.000000e-01	-1.11694e-05
161	7.800000e-01	4.000000e-01	-1.13164e-05
162	8.000000e-01	4.000000e-01	-1.14638e-05
163	8.200000e-01	4.000000e-01	-1.16116e-05
164	8.400000e-01	4.000000e-01	-1.17597e-05
165	8.600000e-01	4.000000e-01	-1.19081e-05
166	8.800000e-01	4.000000e-01	-1.20569e-05
167	9.000000e-01	4.000000e-01	-1.22061e-05
168	9.200000e-01	4.000000e-01	-1.23557e-05
169	9.400000e-01	4.000000e-01	-1.25057e-05
170	9.600000e-01	4.000000e-01	-1.26560e-05

Index   sweep           v(1)            vds#branch
--------------------------------------------------------------------------------
171	9.800000e-01	4.000000e-01	-1.28068e-05
172	1.000000e+00	4.000000e-01	-1.29581e-05
173	1.020000e+00	4.000000e-01	-1.31098e-05
174	1.040000e+00	4.000000e-01	-1.32620e-05
175	1.060000e+00	4.000000e-01	-1.34147e-05
176	1.080000e+00	4.000000e-01	-1.35679e-05
177	1.100000e+00	4.000000e-01	-1.37217e-05
178	1.120000e+00	4.000000e-01	-1.38761e-05
179	1.140000e+00	4.000000e-01	-1.40311e-05
180	1.160000e+00	4.000000e-01	-1.41869e-05
181	1.180000e+00	4.000000e-01	-1.43433e-05
182	1.200000e+00	4.000000e-01	-1.45005e-05
183	0.000000e+00	6.000000e-01	1.339430e-08
184	2.000000e-02	6.000000e-01	-7.80946e-05
185	4.000000e-02	6.000000e-01	-1.40371e-04
186	6.000000e-02	6.000000e-01	-1.87896e-04
187	8.000000e-02	6.000000e-01	-2.22117e-04
188	1.000000e-01	6.000000e-01	-2.45155e-04
189	1.200000e-01	6.000000e-01	-2.59885e-04
190	1.400000e-01	6.000000e-01	-2.69326e-04
191	1.600000e-01	6.000000e-01	-2.75790e-04
192	1.800000e-01	6.000000e-01	-2.80646e-04
193	2.000000e-01	6.000000e-01	-2.84611e-04
194	2.200000e-01	6.000000e-01	-2.88051e-04
195	2.400000e-01	6.000000e-01	-2.91163e-04
196	2.600000e-01	6.000000e-01	-2.94055e-04
197	2.800000e-01	6.000000e-01	-2.96795e-04
198	3.000000e-01	6.000000e-01	-2.99424e-04
199	3.200000e-01	6.000000e-01	-3.01971e-04
200	3.400000e-01	6.000000e-01	-3.04453e-04
201	3.600000e-01	6.000000e-01	-3.06886e-04
202	3.800000e-01	6.000000e-01	-3.09279e-04
203	4.000000e-01	6.000000e-01	-3.11640e-04
204	4.200000e-01	6.000000e-01	-3.13975e-04
205	4.400000e-01	6.000000e-01	-3.16287e-04
206	4.600000e-01	6.000000e-01	-3.18582e-04
207	4.800000e-01	6.000000e-01	-3.20861e-04
208	5.000000e-01	6.000000e-01	-3.23128e-04
209	5.200000e-01	6.000000e-01	-3.25384e-04
210	5.400000e-01	6.000000e-01	-3.27630e-04
211	5.600000e-01	6.000000e-01	-3.29868e-04
212	5.800000e-01	6.000000e-01	-3.32099e-04
213	6.000000e-01	6.000000e-01	-3.34325e-04
214	6.200000e-01	6.000000e-01	-3.36545e-04
215	6.400000e-01	6.000000e-01	-3.38761e-04
216	6.600000e-01	6.000000e-01	-3.40973e-04
217	6.800000e-01	6.000000e-01	-3.43181e-04
218	7.000000e-01	6.000000e-01	-3.45387e-04
219	7.200000e-01	6.000000e-01	-3.47590e-04
220	7.400000e-01	6.000000e-01	-3.49792e-04
221	7.600000e-01	6.000000e-01	-3.51991e-04
222	7.800000e-01	6.000000e-01	-3.54189e-04
223	8.000000e-01	6.000000e-01	-3.56386e-04
224	8.200000e-01	6.000000e-01	-3.58581e-04
225	8.400000e-01	6.000000e-01	-3.60776e-04
226	8.600000e-01	6.000000e-01	-3.62970e-04
227	8.800000e-01	6.000000e-01	-3.65164e-04
228	9.000000e-01	6.000000e-01	-3.67357e-04

Index   sweep           v(1)            vds#branch
--------------------------------------------------------------------------------
229	9.200000e-01	6.000000e-01	-3.69551e-04
230	9.400000e-01	6.000000e-01	-3.71744e-04
231	9.600000e-01	6.000000e-01	-3.73937e-04
232	9.800000e-01	6.000000e-01	-3.76131e-04
233	1.000000e+00	6.000000e-01	-3.78325e-04
234	1.020000e+00	6.000000e-01	-3.80520e-04
235	1.040000e+00	6.000000e-01	-3.82716e-04
236	1.060000e+00	6.000000e-01	-3.84913e-04
237	1.080000e+00	6.000000e-01	-3.87111e-04
238	1.100000e+00	6.000000e-01	-3.89310e-04
239	1.120000e+00	6.000000e-01	-3.91511e-04
240	1.140000e+00	6.000000e-01	-3.93714e-04
241	1.160000e+00	6.000000e-01	-3.95918e-04
242	1.180000e+00	6.000000e-01	-3.98125e-04
243	1.200000e+00	6.000000e-01	-4.00334e-04
244	0.000000e+00	8.000000e-01	5.524157e-08
245	2.000000e-02	8.000000e-01	-1.79764e-04
246	4.000000e-02	8.000000e-01	-3.41692e-04
247	6.000000e-02	8.000000e-01	-4.86386e-04
248	8.000000e-02	8.000000e-01	-6.14487e-04
249	1.000000e-01	8.000000e-01	-7.26640e-04
250	1.200000e-01	8.000000e-01	-8.23505e-04
251	1.400000e-01	8.000000e-01	-9.05798e-04
252	1.600000e-01	8.000000e-01	-9.74342e-04
253	1.800000e-01	8.000000e-01	-1.03016e-03
254	2.000000e-01	8.000000e-01	-1.07458e-03
255	2.200000e-01	8.000000e-01	-1.10930e-03
256	2.400000e-01	8.000000e-01	-1.13628e-03
257	2.600000e-01	8.000000e-01	-1.15749e-03
258	2.800000e-01	8.000000e-01	-1.17462e-03
259	3.000000e-01	8.000000e-01	-1.18890e-03
260	3.200000e-01	8.000000e-01	-1.20120e-03
261	3.400000e-01	8.000000e-01	-1.21209e-03
262	3.600000e-01	8.000000e-01	-1.22194e-03
263	3.800000e-01	8.000000e-01	-1.23103e-03
264	4.000000e-01	8.000000e-01	-1.23951e-03
265	4.200000e-01	8.000000e-01	-1.24753e-03
266	4.400000e-01	8.000000e-01	-1.25517e-03
267	4.600000e-01	8.000000e-01	-1.26251e-03
268	4.800000e-01	8.000000e-01	-1.26959e-03
269	5.000000e-01	8.000000e-01	-1.27645e-03
270	5.200000e-01	8.000000e-01	-1.28314e-03
271	5.400000e-01	8.000000e-01	-1.28968e-03
272	5.600000e-01	8.000000e-01	-1.29609e-03
273	5.800000e-01	8.000000e-01	-1.30238e-03
274	6.000000e-01	8.000000e-01	-1.30858e-03
275	6.200000e-01	8.000000e-01	-1.31469e-03
276	6.400000e-01	8.000000e-01	-1.32072e-03
277	6.600000e-01	8.000000e-01	-1.32669e-03
278	6.800000e-01	8.000000e-01	-1.33259e-03
279	7.000000e-01	8.000000e-01	-1.33844e-03
280	7.200000e-01	8.000000e-01	-1.34424e-03
281	7.400000e-01	8.000000e-01	-1.34999e-03
282	7.600000e-01	8.000000e-01	-1.35571e-03
283	7.800000e-01	8.000000e-01	-1.36139e-03
284	8.000000e-01	8.000000e-01	-1.36703e-03
285	8.200000e-01	8.000000e-01	-1.37265e-03
286	8.400000e-01	8.000000e-01	-1.37823e-03

Index   sweep           v(1)            vds#branch
--------------------------------------------------------------------------------
287	8.600000e-01	8.000000e-01	-1.38379e-03
288	8.800000e-01	8.000000e-01	-1.38932e-03
289	9.000000e-01	8.000000e-01	-1.39483e-03
290	9.200000e-01	8.000000e-01	-1.40033e-03
291	9.400000e-01	8.000000e-01	-1.40580e-03
292	9.600000e-01	8.000000e-01	-1.41125e-03
293	9.800000e-01	8.000000e-01	-1.41668e-03
294	1.000000e+00	8.000000e-01	-1.42210e-03
295	1.020000e+00	8.000000e-01	-1.42750e-03
296	1.040000e+00	8.000000e-01	-1.43289e-03
297	1.060000e+00	8.000000e-01	-1.43827e-03
298	1.080000e+00	8.000000e-01	-1.44363e-03
299	1.100000e+00	8.000000e-01	-1.44898e-03
300	1.120000e+00	8.000000e-01	-1.45433e-03
301	1.140000e+00	8.000000e-01	-1.45966e-03
302	1.160000e+00	8.000000e-01	-1.46498e-03
303	1.180000e+00	8.000000e-01	-1.47030e-03
304	1.200000e+00	8.000000e-01	-1.47560e-03
305	0.000000e+00	1.000000e+00	1.933031e-07
306	2.000000e-02	1.000000e+00	-2.49099e-04
307	4.000000e-02	1.000000e+00	-4.81558e-04
308	6.000000e-02	1.000000e+00	-6.97675e-04
309	8.000000e-02	1.000000e+00	-8.97927e-04
310	1.000000e-01	1.000000e+00	-1.08278e-03
311	1.200000e-01	1.000000e+00	-1.25267e-03
312	1.400000e-01	1.000000e+00	-1.40807e-03
313	1.600000e-01	1.000000e+00	-1.54940e-03
314	1.800000e-01	1.000000e+00	-1.67710e-03
315	2.000000e-01	1.000000e+00	-1.79164e-03
316	2.200000e-01	1.000000e+00	-1.89350e-03
317	2.400000e-01	1.000000e+00	-1.98320e-03
318	2.600000e-01	1.000000e+00	-2.06135e-03
319	2.800000e-01	1.000000e+00	-2.12869e-03
320	3.000000e-01	1.000000e+00	-2.18610e-03
321	3.200000e-01	1.000000e+00	-2.23467e-03
322	3.400000e-01	1.000000e+00	-2.27565e-03
323	3.600000e-01	1.000000e+00	-2.31038e-03
324	3.800000e-01	1.000000e+00	-2.34011e-03
325	4.000000e-01	1.000000e+00	-2.36593e-03
326	4.200000e-01	1.000000e+00	-2.38872e-03
327	4.400000e-01	1.000000e+00	-2.40915e-03
328	4.600000e-01	1.000000e+00	-2.42773e-03
329	4.800000e-01	1.000000e+00	-2.44482e-03
330	5.000000e-01	1.000000e+00	-2.46071e-03
331	5.200000e-01	1.000000e+00	-2.47562e-03
332	5.400000e-01	1.000000e+00	-2.48971e-03
333	5.600000e-01	1.000000e+00	-2.50311e-03
334	5.800000e-01	1.000000e+00	-2.51594e-03
335	6.000000e-01	1.000000e+00	-2.52827e-03
336	6.200000e-01	1.000000e+00	-2.54017e-03
337	6.400000e-01	1.000000e+00	-2.55170e-03
338	6.600000e-01	1.000000e+00	-2.56292e-03
339	6.800000e-01	1.000000e+00	-2.57385e-03
340	7.000000e-01	1.000000e+00	-2.58453e-03
341	7.200000e-01	1.000000e+00	-2.59499e-03
342	7.400000e-01	1.000000e+00	-2.60526e-03
343	7.600000e-01	1.000000e+00	-2.61534e-03
344	7.800000e-01	1.000000e+00	-2.62527e-03

Index   sweep           v(1)            vds#branch
--------------------------------------------------------------------------------
345	8.000000e-01	1.000000e+00	-2.63506e-03
346	8.200000e-01	1.000000e+00	-2.64471e-03
347	8.400000e-01	1.000000e+00	-2.65425e-03
348	8.600000e-01	1.000000e+00	-2.66367e-03
349	8.800000e-01	1.000000e+00	-2.67300e-03
350	9.000000e-01	1.000000e+00	-2.68223e-03
351	9.200000e-01	1.000000e+00	-2.69138e-03
352	9.400000e-01	1.000000e+00	-2.70046e-03
353	9.600000e-01	1.000000e+00	-2.70946e-03
354	9.800000e-01	1.000000e+00	-2.71839e-03
355	1.000000e+00	1.000000e+00	-2.72725e-03
356	1.020000e+00	1.000000e+00	-2.73606e-03
357	1.040000e+00	1.000000e+00	-2.74481e-03
358	1.060000e+00	1.000000e+00	-2.75351e-03
359	1.080000e+00	1.000000e+00	-2.76216e-03
360	1.100000e+00	1.000000e+00	-2.77076e-03
361	1.120000e+00	1.000000e+00	-2.77932e-03
362	1.140000e+00	1.000000e+00	-2.78784e-03
363	1.160000e+00	1.000000e+00	-2.79632e-03
364	1.180000e+00	1.000000e+00	-2.80476e-03
365	1.200000e+00	1.000000e+00	-2.81317e-03
366	0.000000e+00	1.200000e+00	6.119777e-07
367	2.000000e-02	1.200000e+00	-2.93828e-04
368	4.000000e-02	1.200000e+00	-5.73117e-04
369	6.000000e-02	1.200000e+00	-8.37619e-04
370	8.000000e-02	1.200000e+00	-1.08769e-03
371	1.000000e-01	1.200000e+00	-1.32368e-03
372	1.200000e-01	1.200000e+00	-1.54593e-03
373	1.400000e-01	1.200000e+00	-1.75477e-03
374	1.600000e-01	1.200000e+00	-1.95052e-03
375	1.800000e-01	1.200000e+00	-2.13351e-03
376	2.000000e-01	1.200000e+00	-2.30405e-03
377	2.200000e-01	1.200000e+00	-2.46245e-03
378	2.400000e-01	1.200000e+00	-2.60903e-03
379	2.600000e-01	1.200000e+00	-2.74411e-03
380	2.800000e-01	1.200000e+00	-2.86801e-03
381	3.000000e-01	1.200000e+00	-2.98110e-03
382	3.200000e-01	1.200000e+00	-3.08373e-03
383	3.400000e-01	1.200000e+00	-3.17633e-03
384	3.600000e-01	1.200000e+00	-3.25937e-03
385	3.800000e-01	1.200000e+00	-3.33339e-03
386	4.000000e-01	1.200000e+00	-3.39906e-03
387	4.200000e-01	1.200000e+00	-3.45711e-03
388	4.400000e-01	1.200000e+00	-3.50840e-03
389	4.600000e-01	1.200000e+00	-3.55382e-03
390	4.800000e-01	1.200000e+00	-3.59424e-03
391	5.000000e-01	1.200000e+00	-3.63049e-03
392	5.200000e-01	1.200000e+00	-3.66326e-03
393	5.400000e-01	1.200000e+00	-3.69315e-03
394	5.600000e-01	1.200000e+00	-3.72064e-03
395	5.800000e-01	1.200000e+00	-3.74611e-03
396	6.000000e-01	1.200000e+00	-3.76989e-03
397	6.200000e-01	1.200000e+00	-3.79221e-03
398	6.400000e-01	1.200000e+00	-3.81331e-03
399	6.600000e-01	1.200000e+00	-3.83334e-03
400	6.800000e-01	1.200000e+00	-3.85244e-03
401	7.000000e-01	1.200000e+00	-3.87075e-03
402	7.200000e-01	1.200000e+00	-3.88835e-03

Index   sweep           v(1)            vds#branch
--------------------------------------------------------------------------------
403	7.400000e-01	1.200000e+00	-3.90533e-03
404	7.600000e-01	1.200000e+00	-3.92177e-03
405	7.800000e-01	1.200000e+00	-3.93771e-03
406	8.000000e-01	1.200000e+00	-3.95323e-03
407	8.200000e-01	1.200000e+00	-3.96835e-03
408	8.400000e-01	1.200000e+00	-3.98313e-03
409	8.600000e-01	1.200000e+00	-3.99759e-03
410	8.800000e-01	1.200000e+00	-4.01176e-03
411	9.000000e-01	1.200000e+00	-4.02568e-03
412	9.200000e-01	1.200000e+00	-4.03935e-03
413	9.400000e-01	1.200000e+00	-4.05281e-03
414	9.600000e-01	1.200000e+00	-4.06607e-03
415	9.800000e-01	1.200000e+00	-4.07914e-03
416	1.000000e+00	1.200000e+00	-4.09205e-03
417	1.020000e+00	1.200000e+00	-4.10480e-03
418	1.040000e+00	1.200000e+00	-4.11740e-03
419	1.060000e+00	1.200000e+00	-4.12986e-03
420	1.080000e+00	1.200000e+00	-4.14220e-03
421	1.100000e+00	1.200000e+00	-4.15442e-03
422	1.120000e+00	1.200000e+00	-4.16652e-03
423	1.140000e+00	1.200000e+00	-4.17852e-03
424	1.160000e+00	1.200000e+00	-4.19043e-03
425	1.180000e+00	1.200000e+00	-4.20224e-03
426	1.200000e+00	1.200000e+00	-4.21396e-03

CPU time since last call: 0.260 seconds.

Total CPU time: 0.260 seconds.

Current dynamic memory usage = 303104,
Dynamic memory limit = -23998888.

