
No. of Data Rows : 343

Circuit: ** PMOSFET: Benchmarking Implementation of BSIM4.1.0 by Weidong Liu 10/11/2000.

Doing analysis at TEMP = 373.150000 and TNOM = 300.150000
Warning: This model is BSIM4.2.1; you specified a wrong version number.
** PMOSFET: Benchmarking Implementation of BSIM4.1.0 by Weidong Liu 10/11/2000.
--------------------------------------------------------------------------------
Index   v-sweep         v(2)            vds#branch      
--------------------------------------------------------------------------------
0	6.000000e-01	-1.000000e-01	8.862897e-11	
1	5.500000e-01	-1.000000e-01	8.862897e-11	
2	5.000000e-01	-1.000000e-01	8.862897e-11	
3	4.500000e-01	-1.000000e-01	8.862898e-11	
4	4.000000e-01	-1.000000e-01	8.862900e-11	
5	3.500000e-01	-1.000000e-01	8.862910e-11	
6	3.000000e-01	-1.000000e-01	8.862951e-11	
7	2.500000e-01	-1.000000e-01	8.863117e-11	
8	2.000000e-01	-1.000000e-01	8.863769e-11	
9	1.500000e-01	-1.000000e-01	8.866360e-11	
10	1.000000e-01	-1.000000e-01	8.876648e-11	
11	5.000000e-02	-1.000000e-01	8.917487e-11	
12	6.938894e-17	-1.000000e-01	9.079578e-11	
13	-5.000000e-02	-1.000000e-01	9.722733e-11	
14	-1.000000e-01	-1.000000e-01	1.227320e-10	
15	-1.500000e-01	-1.000000e-01	2.237541e-10	
16	-2.000000e-01	-1.000000e-01	6.229575e-10	
17	-2.500000e-01	-1.000000e-01	2.193122e-09	
18	-3.000000e-01	-1.000000e-01	8.312678e-09	
19	-3.500000e-01	-1.000000e-01	3.175047e-08	
20	-4.000000e-01	-1.000000e-01	1.187353e-07	
21	-4.500000e-01	-1.000000e-01	4.254085e-07	
22	-5.000000e-01	-1.000000e-01	1.432836e-06	
23	-5.500000e-01	-1.000000e-01	4.496335e-06	
24	-6.000000e-01	-1.000000e-01	1.310337e-05	
25	-6.500000e-01	-1.000000e-01	3.422650e-05	
26	-7.000000e-01	-1.000000e-01	7.383395e-05	
27	-7.500000e-01	-1.000000e-01	1.264975e-04	
28	-8.000000e-01	-1.000000e-01	1.799950e-04	
29	-8.500000e-01	-1.000000e-01	2.269490e-04	
30	-9.000000e-01	-1.000000e-01	2.660718e-04	
31	-9.500000e-01	-1.000000e-01	2.986796e-04	
32	-1.000000e+00	-1.000000e-01	3.264093e-04	
33	-1.050000e+00	-1.000000e-01	3.505164e-04	
34	-1.100000e+00	-1.000000e-01	3.718408e-04	
35	-1.150000e+00	-1.000000e-01	3.909279e-04	
36	-1.200000e+00	-1.000000e-01	4.081394e-04	
37	-1.250000e+00	-1.000000e-01	4.237284e-04	
38	-1.300000e+00	-1.000000e-01	4.378829e-04	
39	-1.350000e+00	-1.000000e-01	4.507515e-04	
40	-1.400000e+00	-1.000000e-01	4.624575e-04	
41	-1.450000e+00	-1.000000e-01	4.731063e-04	
42	-1.500000e+00	-1.000000e-01	4.827905e-04	
43	-1.550000e+00	-1.000000e-01	4.915921e-04	
44	-1.600000e+00	-1.000000e-01	4.995830e-04	
45	-1.650000e+00	-1.000000e-01	5.068090e-04	
46	-1.700000e+00	-1.000000e-01	5.133314e-04	
47	-1.750000e+00	-1.000000e-01	5.192122e-04	
48	-1.800000e+00	-1.000000e-01	5.245069e-04	
49	6.000000e-01	-1.000000e-01	9.306154e-11	
50	5.500000e-01	-1.000000e-01	9.306153e-11	
51	5.000000e-01	-1.000000e-01	9.306154e-11	
52	4.500000e-01	-1.000000e-01	9.306153e-11	
53	4.000000e-01	-1.000000e-01	9.306155e-11	
54	3.500000e-01	-1.000000e-01	9.306158e-11	

Index   v-sweep         v(2)            vds#branch      
--------------------------------------------------------------------------------
55	3.000000e-01	-1.000000e-01	9.306172e-11	
56	2.500000e-01	-1.000000e-01	9.306231e-11	
57	2.000000e-01	-1.000000e-01	9.306470e-11	
58	1.500000e-01	-1.000000e-01	9.307438e-11	
59	1.000000e-01	-1.000000e-01	9.311366e-11	
60	5.000000e-02	-1.000000e-01	9.327297e-11	
61	6.938894e-17	-1.000000e-01	9.391911e-11	
62	-5.000000e-02	-1.000000e-01	9.653937e-11	
63	-1.000000e-01	-1.000000e-01	1.071610e-10	
64	-1.500000e-01	-1.000000e-01	1.501843e-10	
65	-2.000000e-01	-1.000000e-01	3.241766e-10	
66	-2.500000e-01	-1.000000e-01	1.025588e-09	
67	-3.000000e-01	-1.000000e-01	3.835190e-09	
68	-3.500000e-01	-1.000000e-01	1.494946e-08	
69	-4.000000e-01	-1.000000e-01	5.788919e-08	
70	-4.500000e-01	-1.000000e-01	2.170643e-07	
71	-5.000000e-01	-1.000000e-01	7.708651e-07	
72	-5.500000e-01	-1.000000e-01	2.551472e-06	
73	-6.000000e-01	-1.000000e-01	7.836172e-06	
74	-6.500000e-01	-1.000000e-01	2.197896e-05	
75	-7.000000e-01	-1.000000e-01	5.256612e-05	
76	-7.500000e-01	-1.000000e-01	9.974458e-05	
77	-8.000000e-01	-1.000000e-01	1.526339e-04	
78	-8.500000e-01	-1.000000e-01	2.012714e-04	
79	-9.000000e-01	-1.000000e-01	2.423406e-04	
80	-9.500000e-01	-1.000000e-01	2.764963e-04	
81	-1.000000e+00	-1.000000e-01	3.053579e-04	
82	-1.050000e+00	-1.000000e-01	3.303093e-04	
83	-1.100000e+00	-1.000000e-01	3.523033e-04	
84	-1.150000e+00	-1.000000e-01	3.719569e-04	
85	-1.200000e+00	-1.000000e-01	3.896727e-04	
86	-1.250000e+00	-1.000000e-01	4.057258e-04	
87	-1.300000e+00	-1.000000e-01	4.203160e-04	
88	-1.350000e+00	-1.000000e-01	4.335982e-04	
89	-1.400000e+00	-1.000000e-01	4.456992e-04	
90	-1.450000e+00	-1.000000e-01	4.567265e-04	
91	-1.500000e+00	-1.000000e-01	4.667741e-04	
92	-1.550000e+00	-1.000000e-01	4.759254e-04	
93	-1.600000e+00	-1.000000e-01	4.842528e-04	
94	-1.650000e+00	-1.000000e-01	4.918019e-04	
95	-1.700000e+00	-1.000000e-01	4.986347e-04	
96	-1.750000e+00	-1.000000e-01	5.048139e-04	
97	-1.800000e+00	-1.000000e-01	5.103957e-04	
98	6.000000e-01	-1.000000e-01	9.336192e-11	
99	5.500000e-01	-1.000000e-01	9.336192e-11	
100	5.000000e-01	-1.000000e-01	9.336192e-11	
101	4.500000e-01	-1.000000e-01	9.336191e-11	
102	4.000000e-01	-1.000000e-01	9.336192e-11	
103	3.500000e-01	-1.000000e-01	9.336192e-11	
104	3.000000e-01	-1.000000e-01	9.336199e-11	
105	2.500000e-01	-1.000000e-01	9.336225e-11	
106	2.000000e-01	-1.000000e-01	9.336334e-11	
107	1.500000e-01	-1.000000e-01	9.336782e-11	
108	1.000000e-01	-1.000000e-01	9.338625e-11	
109	5.000000e-02	-1.000000e-01	9.346209e-11	
110	6.938894e-17	-1.000000e-01	9.377419e-11	
111	-5.000000e-02	-1.000000e-01	9.505834e-11	
112	-1.000000e-01	-1.000000e-01	1.003408e-10	

Index   v-sweep         v(2)            vds#branch      
--------------------------------------------------------------------------------
113	-1.500000e-01	-1.000000e-01	1.220584e-10	
114	-2.000000e-01	-1.000000e-01	2.112428e-10	
115	-2.500000e-01	-1.000000e-01	5.766312e-10	
116	-3.000000e-01	-1.000000e-01	2.066572e-09	
117	-3.500000e-01	-1.000000e-01	8.085015e-09	
118	-4.000000e-01	-1.000000e-01	3.195481e-08	
119	-4.500000e-01	-1.000000e-01	1.235036e-07	
120	-5.000000e-01	-1.000000e-01	4.557679e-07	
121	-5.500000e-01	-1.000000e-01	1.573433e-06	
122	-6.000000e-01	-1.000000e-01	5.034051e-06	
123	-6.500000e-01	-1.000000e-01	1.482331e-05	
124	-7.000000e-01	-1.000000e-01	3.825695e-05	
125	-7.500000e-01	-1.000000e-01	7.943450e-05	
126	-8.000000e-01	-1.000000e-01	1.305234e-04	
127	-8.500000e-01	-1.000000e-01	1.801350e-04	
128	-9.000000e-01	-1.000000e-01	2.228574e-04	
129	-9.500000e-01	-1.000000e-01	2.584303e-04	
130	-1.000000e+00	-1.000000e-01	2.883322e-04	
131	-1.050000e+00	-1.000000e-01	3.140396e-04	
132	-1.100000e+00	-1.000000e-01	3.366118e-04	
133	-1.150000e+00	-1.000000e-01	3.567391e-04	
134	-1.200000e+00	-1.000000e-01	3.748672e-04	
135	-1.250000e+00	-1.000000e-01	3.912944e-04	
136	-1.300000e+00	-1.000000e-01	4.062332e-04	
137	-1.350000e+00	-1.000000e-01	4.198451e-04	
138	-1.400000e+00	-1.000000e-01	4.322603e-04	
139	-1.450000e+00	-1.000000e-01	4.435888e-04	
140	-1.500000e+00	-1.000000e-01	4.539257e-04	
141	-1.550000e+00	-1.000000e-01	4.633552e-04	
142	-1.600000e+00	-1.000000e-01	4.719505e-04	
143	-1.650000e+00	-1.000000e-01	4.797570e-04	
144	-1.700000e+00	-1.000000e-01	4.868372e-04	
145	-1.750000e+00	-1.000000e-01	4.932543e-04	
146	-1.800000e+00	-1.000000e-01	4.990651e-04	
147	6.000000e-01	-1.000000e-01	9.366191e-11	
148	5.500000e-01	-1.000000e-01	9.366191e-11	
149	5.000000e-01	-1.000000e-01	9.366191e-11	
150	4.500000e-01	-1.000000e-01	9.366191e-11	
151	4.000000e-01	-1.000000e-01	9.366191e-11	
152	3.500000e-01	-1.000000e-01	9.366192e-11	
153	3.000000e-01	-1.000000e-01	9.366195e-11	
154	2.500000e-01	-1.000000e-01	9.366208e-11	
155	2.000000e-01	-1.000000e-01	9.366266e-11	
156	1.500000e-01	-1.000000e-01	9.366505e-11	
157	1.000000e-01	-1.000000e-01	9.367501e-11	
158	5.000000e-02	-1.000000e-01	9.371642e-11	
159	6.938894e-17	-1.000000e-01	9.388861e-11	
160	-5.000000e-02	-1.000000e-01	9.460461e-11	
161	-1.000000e-01	-1.000000e-01	9.758134e-11	
162	-1.500000e-01	-1.000000e-01	1.099515e-10	
163	-2.000000e-01	-1.000000e-01	1.613122e-10	
164	-2.500000e-01	-1.000000e-01	3.741797e-10	
165	-3.000000e-01	-1.000000e-01	1.253190e-09	
166	-3.500000e-01	-1.000000e-01	4.856129e-09	
167	-4.000000e-01	-1.000000e-01	1.940927e-08	
168	-4.500000e-01	-1.000000e-01	7.658995e-08	
169	-5.000000e-01	-1.000000e-01	2.907678e-07	
170	-5.500000e-01	-1.000000e-01	1.038041e-06	

Index   v-sweep         v(2)            vds#branch      
--------------------------------------------------------------------------------
171	-6.000000e-01	-1.000000e-01	3.435202e-06	
172	-6.500000e-01	-1.000000e-01	1.048667e-05	
173	-7.000000e-01	-1.000000e-01	2.860362e-05	
174	-7.500000e-01	-1.000000e-01	6.405817e-05	
175	-8.000000e-01	-1.000000e-01	1.125545e-04	
176	-8.500000e-01	-1.000000e-01	1.624807e-04	
177	-9.000000e-01	-1.000000e-01	2.065353e-04	
178	-9.500000e-01	-1.000000e-01	2.433783e-04	
179	-1.000000e+00	-1.000000e-01	2.742314e-04	
180	-1.050000e+00	-1.000000e-01	3.006206e-04	
181	-1.100000e+00	-1.000000e-01	3.237003e-04	
182	-1.150000e+00	-1.000000e-01	3.442320e-04	
183	-1.200000e+00	-1.000000e-01	3.627045e-04	
184	-1.250000e+00	-1.000000e-01	3.794402e-04	
185	-1.300000e+00	-1.000000e-01	3.946642e-04	
186	-1.350000e+00	-1.000000e-01	4.085449e-04	
187	-1.400000e+00	-1.000000e-01	4.212160e-04	
188	-1.450000e+00	-1.000000e-01	4.327895e-04	
189	-1.500000e+00	-1.000000e-01	4.433618e-04	
190	-1.550000e+00	-1.000000e-01	4.530179e-04	
191	-1.600000e+00	-1.000000e-01	4.618314e-04	
192	-1.650000e+00	-1.000000e-01	4.698478e-04	
193	-1.700000e+00	-1.000000e-01	4.771298e-04	
194	-1.750000e+00	-1.000000e-01	4.837410e-04	
195	-1.800000e+00	-1.000000e-01	4.897387e-04	
196	6.000000e-01	-1.000000e-01	9.396191e-11	
197	5.500000e-01	-1.000000e-01	9.396191e-11	
198	5.000000e-01	-1.000000e-01	9.396191e-11	
199	4.500000e-01	-1.000000e-01	9.396190e-11	
200	4.000000e-01	-1.000000e-01	9.396191e-11	
201	3.500000e-01	-1.000000e-01	9.396191e-11	
202	3.000000e-01	-1.000000e-01	9.396193e-11	
203	2.500000e-01	-1.000000e-01	9.396200e-11	
204	2.000000e-01	-1.000000e-01	9.396234e-11	
205	1.500000e-01	-1.000000e-01	9.396378e-11	
206	1.000000e-01	-1.000000e-01	9.396973e-11	
207	5.000000e-02	-1.000000e-01	9.399479e-11	
208	6.938894e-17	-1.000000e-01	9.409978e-11	
209	-5.000000e-02	-1.000000e-01	9.453985e-11	
210	-1.000000e-01	-1.000000e-01	9.638425e-11	
211	-1.500000e-01	-1.000000e-01	1.041116e-10	
212	-2.000000e-01	-1.000000e-01	1.364640e-10	
213	-2.500000e-01	-1.000000e-01	2.717200e-10	
214	-3.000000e-01	-1.000000e-01	8.355156e-10	
215	-3.500000e-01	-1.000000e-01	3.171480e-09	
216	-4.000000e-01	-1.000000e-01	1.273388e-08	
217	-4.500000e-01	-1.000000e-01	5.097803e-08	
218	-5.000000e-01	-1.000000e-01	1.976898e-07	
219	-5.500000e-01	-1.000000e-01	7.248722e-07	
220	-6.000000e-01	-1.000000e-01	2.467869e-06	
221	-6.500000e-01	-1.000000e-01	7.752446e-06	
222	-7.000000e-01	-1.000000e-01	2.202313e-05	
223	-7.500000e-01	-1.000000e-01	5.244745e-05	
224	-8.000000e-01	-1.000000e-01	9.795354e-05	
225	-8.500000e-01	-1.000000e-01	1.476508e-04	
226	-9.000000e-01	-1.000000e-01	1.927224e-04	
227	-9.500000e-01	-1.000000e-01	2.306813e-04	
228	-1.000000e+00	-1.000000e-01	2.623970e-04	

Index   v-sweep         v(2)            vds#branch      
--------------------------------------------------------------------------------
229	-1.050000e+00	-1.000000e-01	2.894014e-04	
230	-1.100000e+00	-1.000000e-01	3.129296e-04	
231	-1.150000e+00	-1.000000e-01	3.338102e-04	
232	-1.200000e+00	-1.000000e-01	3.525740e-04	
233	-1.250000e+00	-1.000000e-01	3.695672e-04	
234	-1.300000e+00	-1.000000e-01	3.850276e-04	
235	-1.350000e+00	-1.000000e-01	3.991301e-04	
236	-1.400000e+00	-1.000000e-01	4.120122e-04	
237	-1.450000e+00	-1.000000e-01	4.237876e-04	
238	-1.500000e+00	-1.000000e-01	4.345539e-04	
239	-1.550000e+00	-1.000000e-01	4.443968e-04	
240	-1.600000e+00	-1.000000e-01	4.533904e-04	
241	-1.650000e+00	-1.000000e-01	4.615800e-04	
242	-1.700000e+00	-1.000000e-01	4.690286e-04	
243	-1.750000e+00	-1.000000e-01	4.758003e-04	
244	-1.800000e+00	-1.000000e-01	4.819526e-04	
245	6.000000e-01	-1.000000e-01	9.426191e-11	
246	5.500000e-01	-1.000000e-01	9.426191e-11	
247	5.000000e-01	-1.000000e-01	9.426190e-11	
248	4.500000e-01	-1.000000e-01	9.426191e-11	
249	4.000000e-01	-1.000000e-01	9.426190e-11	
250	3.500000e-01	-1.000000e-01	9.426191e-11	
251	3.000000e-01	-1.000000e-01	9.426192e-11	
252	2.500000e-01	-1.000000e-01	9.426197e-11	
253	2.000000e-01	-1.000000e-01	9.426219e-11	
254	1.500000e-01	-1.000000e-01	9.426310e-11	
255	1.000000e-01	-1.000000e-01	9.426701e-11	
256	5.000000e-02	-1.000000e-01	9.428343e-11	
257	6.938894e-17	-1.000000e-01	9.435272e-11	
258	-5.000000e-02	-1.000000e-01	9.464500e-11	
259	-1.000000e-01	-1.000000e-01	9.587781e-11	
260	-1.500000e-01	-1.000000e-01	1.010761e-10	
261	-2.000000e-01	-1.000000e-01	1.229826e-10	
262	-2.500000e-01	-1.000000e-01	2.151913e-10	
263	-3.000000e-01	-1.000000e-01	6.023589e-10	
264	-3.500000e-01	-1.000000e-01	2.219807e-09	
265	-4.000000e-01	-1.000000e-01	8.908286e-09	
266	-4.500000e-01	-1.000000e-01	3.601956e-08	
267	-5.000000e-01	-1.000000e-01	1.419522e-07	
268	-5.500000e-01	-1.000000e-01	5.317247e-07	
269	-6.000000e-01	-1.000000e-01	1.853993e-06	
270	-6.500000e-01	-1.000000e-01	5.963745e-06	
271	-7.000000e-01	-1.000000e-01	1.746966e-05	
272	-7.500000e-01	-1.000000e-01	4.368956e-05	
273	-8.000000e-01	-1.000000e-01	8.612476e-05	
274	-8.500000e-01	-1.000000e-01	1.351917e-04	
275	-9.000000e-01	-1.000000e-01	1.809926e-04	
276	-9.500000e-01	-1.000000e-01	2.199121e-04	
277	-1.000000e+00	-1.000000e-01	2.524010e-04	
278	-1.050000e+00	-1.000000e-01	2.799577e-04	
279	-1.100000e+00	-1.000000e-01	3.038823e-04	
280	-1.150000e+00	-1.000000e-01	3.250650e-04	
281	-1.200000e+00	-1.000000e-01	3.440765e-04	
282	-1.250000e+00	-1.000000e-01	3.612858e-04	
283	-1.300000e+00	-1.000000e-01	3.769431e-04	
284	-1.350000e+00	-1.000000e-01	3.912297e-04	
285	-1.400000e+00	-1.000000e-01	4.042867e-04	
286	-1.450000e+00	-1.000000e-01	4.162294e-04	

Index   v-sweep         v(2)            vds#branch      
--------------------------------------------------------------------------------
287	-1.500000e+00	-1.000000e-01	4.271565e-04	
288	-1.550000e+00	-1.000000e-01	4.371543e-04	
289	-1.600000e+00	-1.000000e-01	4.462973e-04	
290	-1.650000e+00	-1.000000e-01	4.546308e-04	
291	-1.700000e+00	-1.000000e-01	4.622178e-04	
292	-1.750000e+00	-1.000000e-01	4.691228e-04	
293	-1.800000e+00	-1.000000e-01	4.754037e-04	
294	6.000000e-01	-1.000000e-01	9.456192e-11	
295	5.500000e-01	-1.000000e-01	9.456192e-11	
296	5.000000e-01	-1.000000e-01	9.456191e-11	
297	4.500000e-01	-1.000000e-01	9.456192e-11	
298	4.000000e-01	-1.000000e-01	9.456191e-11	
299	3.500000e-01	-1.000000e-01	9.456191e-11	
300	3.000000e-01	-1.000000e-01	9.456192e-11	
301	2.500000e-01	-1.000000e-01	9.456196e-11	
302	2.000000e-01	-1.000000e-01	9.456210e-11	
303	1.500000e-01	-1.000000e-01	9.456274e-11	
304	1.000000e-01	-1.000000e-01	9.456545e-11	
305	5.000000e-02	-1.000000e-01	9.457697e-11	
306	6.938894e-17	-1.000000e-01	9.462578e-11	
307	-5.000000e-02	-1.000000e-01	9.483273e-11	
308	-1.000000e-01	-1.000000e-01	9.571016e-11	
309	-1.500000e-01	-1.000000e-01	9.942910e-11	
310	-2.000000e-01	-1.000000e-01	1.151843e-10	
311	-2.500000e-01	-1.000000e-01	1.818628e-10	
312	-3.000000e-01	-1.000000e-01	4.634620e-10	
313	-3.500000e-01	-1.000000e-01	1.647568e-09	
314	-4.000000e-01	-1.000000e-01	6.582848e-09	
315	-4.500000e-01	-1.000000e-01	2.679629e-08	
316	-5.000000e-01	-1.000000e-01	1.069168e-07	
317	-5.500000e-01	-1.000000e-01	4.073854e-07	
318	-6.000000e-01	-1.000000e-01	1.449109e-06	
319	-6.500000e-01	-1.000000e-01	4.755609e-06	
320	-7.000000e-01	-1.000000e-01	1.426667e-05	
321	-7.500000e-01	-1.000000e-01	3.708091e-05	
322	-8.000000e-01	-1.000000e-01	7.658573e-05	
323	-8.500000e-01	-1.000000e-01	1.247626e-04	
324	-9.000000e-01	-1.000000e-01	1.710460e-04	
325	-9.500000e-01	-1.000000e-01	2.107759e-04	
326	-1.000000e+00	-1.000000e-01	2.439482e-04	
327	-1.050000e+00	-1.000000e-01	2.719960e-04	
328	-1.100000e+00	-1.000000e-01	2.962692e-04	
329	-1.150000e+00	-1.000000e-01	3.177127e-04	
330	-1.200000e+00	-1.000000e-01	3.369346e-04	
331	-1.250000e+00	-1.000000e-01	3.543251e-04	
332	-1.300000e+00	-1.000000e-01	3.701464e-04	
333	-1.350000e+00	-1.000000e-01	3.845859e-04	
334	-1.400000e+00	-1.000000e-01	3.977878e-04	
335	-1.450000e+00	-1.000000e-01	4.098691e-04	
336	-1.500000e+00	-1.000000e-01	4.209295e-04	
337	-1.550000e+00	-1.000000e-01	4.310558e-04	
338	-1.600000e+00	-1.000000e-01	4.403229e-04	
339	-1.650000e+00	-1.000000e-01	4.487758e-04	
340	-1.700000e+00	-1.000000e-01	4.564780e-04	
341	-1.750000e+00	-1.000000e-01	4.634940e-04	
342	-1.800000e+00	-1.000000e-01	4.698819e-04	




