
Circuit: ** PMOSFET: Benchmarking Implementation of BSIM4.6.0 by Mohan V. Dunga 12/13/2006.

Circuit: ** PMOSFET: Benchmarking Implementation of BSIM4.6.0 by Mohan V. Dunga 12/13/2006.
Date: Fri Apr  8 01:35:56  2011


** PMOSFET: Benchmarking Implementation of BSIM4.6.0 by Mohan V. Dunga 12/13/2006.
DC transfer characteristic  Fri Apr  8 01:35:56  2011
--------------------------------------------------------------------------------
Index   sweep           v(2)            vds#branch      
--------------------------------------------------------------------------------
0	6.000000e-01	-1.000000e-01	3.871000e-12	
1	5.800000e-01	-1.000000e-01	4.329111e-12	
2	5.600000e-01	-1.000000e-01	4.908566e-12	
3	5.400000e-01	-1.000000e-01	5.528059e-12	
4	5.200000e-01	-1.000000e-01	6.223903e-12	
5	5.000000e-01	-1.000000e-01	7.003527e-12	
6	4.800000e-01	-1.000000e-01	7.874725e-12	
7	4.600000e-01	-1.000000e-01	8.845587e-12	
8	4.400000e-01	-1.000000e-01	9.924397e-12	
9	4.200000e-01	-1.000000e-01	1.111950e-11	
10	4.000000e-01	-1.000000e-01	1.243911e-11	
11	3.800000e-01	-1.000000e-01	1.389109e-11	
12	3.600000e-01	-1.000000e-01	1.548262e-11	
13	3.400000e-01	-1.000000e-01	1.721982e-11	
14	3.200000e-01	-1.000000e-01	1.910723e-11	
15	3.000000e-01	-1.000000e-01	2.114722e-11	
16	2.800000e-01	-1.000000e-01	2.333920e-11	
17	2.600000e-01	-1.000000e-01	2.567864e-11	
18	2.400000e-01	-1.000000e-01	2.815598e-11	
19	2.200000e-01	-1.000000e-01	3.075512e-11	
20	2.000000e-01	-1.000000e-01	3.345180e-11	
21	1.800000e-01	-1.000000e-01	3.621154e-11	
22	1.600000e-01	-1.000000e-01	3.898740e-11	
23	1.400000e-01	-1.000000e-01	4.171744e-11	
24	1.200000e-01	-1.000000e-01	4.432249e-11	
25	1.000000e-01	-1.000000e-01	4.670484e-11	
26	8.000000e-02	-1.000000e-01	4.875013e-11	
27	6.000000e-02	-1.000000e-01	5.033720e-11	
28	4.000000e-02	-1.000000e-01	5.136677e-11	
29	2.000000e-02	-1.000000e-01	5.183363e-11	
30	-1.734723e-16	-1.000000e-01	5.199711e-11	
31	-2.000000e-02	-1.000000e-01	5.277180e-11	
32	-4.000000e-02	-1.000000e-01	5.660743e-11	
33	-6.000000e-02	-1.000000e-01	6.944651e-11	
34	-8.000000e-02	-1.000000e-01	1.050333e-10	
35	-1.000000e-01	-1.000000e-01	1.942821e-10	
36	-1.200000e-01	-1.000000e-01	4.053225e-10	
37	-1.400000e-01	-1.000000e-01	8.854527e-10	
38	-1.600000e-01	-1.000000e-01	1.946258e-09	
39	-1.800000e-01	-1.000000e-01	4.228997e-09	
40	-2.000000e-01	-1.000000e-01	9.007517e-09	
41	-2.200000e-01	-1.000000e-01	1.870189e-08	
42	-2.400000e-01	-1.000000e-01	3.767232e-08	
43	-2.600000e-01	-1.000000e-01	7.333658e-08	
44	-2.800000e-01	-1.000000e-01	1.376625e-07	
45	-3.000000e-01	-1.000000e-01	2.492554e-07	
46	-3.200000e-01	-1.000000e-01	4.366870e-07	
47	-3.400000e-01	-1.000000e-01	7.443223e-07	
48	-3.600000e-01	-1.000000e-01	1.242565e-06	
49	-3.800000e-01	-1.000000e-01	2.045061e-06	
50	-4.000000e-01	-1.000000e-01	3.335516e-06	
51	-4.200000e-01	-1.000000e-01	5.404622e-06	
52	-4.400000e-01	-1.000000e-01	8.689797e-06	
53	-4.600000e-01	-1.000000e-01	1.379546e-05	
54	-4.800000e-01	-1.000000e-01	2.145784e-05	

Index   sweep           v(2)            vds#branch      
--------------------------------------------------------------------------------
55	-5.000000e-01	-1.000000e-01	3.242675e-05	
56	-5.200000e-01	-1.000000e-01	4.728000e-05	
57	-5.400000e-01	-1.000000e-01	6.623736e-05	
58	-5.600000e-01	-1.000000e-01	8.906176e-05	
59	-5.800000e-01	-1.000000e-01	1.151095e-04	
60	-6.000000e-01	-1.000000e-01	1.435170e-04	
61	-6.200000e-01	-1.000000e-01	1.734194e-04	
62	-6.400000e-01	-1.000000e-01	2.040901e-04	
63	-6.600000e-01	-1.000000e-01	2.349803e-04	
64	-6.800000e-01	-1.000000e-01	2.656996e-04	
65	-7.000000e-01	-1.000000e-01	2.959791e-04	
66	-7.200000e-01	-1.000000e-01	3.256372e-04	
67	-7.400000e-01	-1.000000e-01	3.545537e-04	
68	-7.600000e-01	-1.000000e-01	3.826512e-04	
69	-7.800000e-01	-1.000000e-01	4.098815e-04	
70	-8.000000e-01	-1.000000e-01	4.362176e-04	
71	-8.200000e-01	-1.000000e-01	4.616468e-04	
72	-8.400000e-01	-1.000000e-01	4.861672e-04	
73	-8.600000e-01	-1.000000e-01	5.097841e-04	
74	-8.800000e-01	-1.000000e-01	5.325081e-04	
75	-9.000000e-01	-1.000000e-01	5.543540e-04	
76	-9.200000e-01	-1.000000e-01	5.753390e-04	
77	-9.400000e-01	-1.000000e-01	5.954823e-04	
78	-9.600000e-01	-1.000000e-01	6.148043e-04	
79	-9.800000e-01	-1.000000e-01	6.333263e-04	
80	-1.000000e+00	-1.000000e-01	6.510699e-04	
81	-1.020000e+00	-1.000000e-01	6.680567e-04	
82	-1.040000e+00	-1.000000e-01	6.843083e-04	
83	-1.060000e+00	-1.000000e-01	6.998459e-04	
84	-1.080000e+00	-1.000000e-01	7.146901e-04	
85	-1.100000e+00	-1.000000e-01	7.288608e-04	
86	-1.120000e+00	-1.000000e-01	7.423770e-04	
87	-1.140000e+00	-1.000000e-01	7.552567e-04	
88	-1.160000e+00	-1.000000e-01	7.675171e-04	
89	-1.180000e+00	-1.000000e-01	7.791737e-04	
90	6.000000e-01	-1.000000e-01	9.030830e-12	
91	5.800000e-01	-1.000000e-01	9.488942e-12	
92	5.600000e-01	-1.000000e-01	1.006840e-11	
93	5.400000e-01	-1.000000e-01	1.068789e-11	
94	5.200000e-01	-1.000000e-01	1.138373e-11	
95	5.000000e-01	-1.000000e-01	1.216336e-11	
96	4.800000e-01	-1.000000e-01	1.303456e-11	
97	4.600000e-01	-1.000000e-01	1.400542e-11	
98	4.400000e-01	-1.000000e-01	1.508423e-11	
99	4.200000e-01	-1.000000e-01	1.627933e-11	
100	4.000000e-01	-1.000000e-01	1.759894e-11	
101	3.800000e-01	-1.000000e-01	1.905092e-11	
102	3.600000e-01	-1.000000e-01	2.064245e-11	
103	3.400000e-01	-1.000000e-01	2.237965e-11	
104	3.200000e-01	-1.000000e-01	2.426705e-11	
105	3.000000e-01	-1.000000e-01	2.630703e-11	
106	2.800000e-01	-1.000000e-01	2.849898e-11	
107	2.600000e-01	-1.000000e-01	3.083838e-11	
108	2.400000e-01	-1.000000e-01	3.331559e-11	
109	2.200000e-01	-1.000000e-01	3.591447e-11	
110	2.000000e-01	-1.000000e-01	3.861055e-11	
111	1.800000e-01	-1.000000e-01	4.136897e-11	
112	1.600000e-01	-1.000000e-01	4.414186e-11	

Index   sweep           v(2)            vds#branch      
--------------------------------------------------------------------------------
113	1.400000e-01	-1.000000e-01	4.686525e-11	
114	1.200000e-01	-1.000000e-01	4.945543e-11	
115	1.000000e-01	-1.000000e-01	5.180452e-11	
116	8.000000e-02	-1.000000e-01	5.377541e-11	
117	6.000000e-02	-1.000000e-01	5.519613e-11	
118	4.000000e-02	-1.000000e-01	5.585385e-11	
119	2.000000e-02	-1.000000e-01	5.548986e-11	
120	-1.734723e-16	-1.000000e-01	5.379818e-11	
121	-2.000000e-02	-1.000000e-01	5.043450e-11	
122	-4.000000e-02	-1.000000e-01	4.505117e-11	
123	-6.000000e-02	-1.000000e-01	3.739461e-11	
124	-8.000000e-02	-1.000000e-01	2.754818e-11	
125	-1.000000e-01	-1.000000e-01	1.650986e-11	
126	-1.200000e-01	-1.000000e-01	7.530663e-12	
127	-1.400000e-01	-1.000000e-01	9.162709e-12	
128	-1.600000e-01	-1.000000e-01	4.209213e-11	
129	-1.800000e-01	-1.000000e-01	1.541825e-10	
130	-2.000000e-01	-1.000000e-01	4.528116e-10	
131	-2.200000e-01	-1.000000e-01	1.172104e-09	
132	-2.400000e-01	-1.000000e-01	2.806353e-09	
133	-2.600000e-01	-1.000000e-01	6.358331e-09	
134	-2.800000e-01	-1.000000e-01	1.376400e-08	
135	-3.000000e-01	-1.000000e-01	2.854880e-08	
136	-3.200000e-01	-1.000000e-01	5.674408e-08	
137	-3.400000e-01	-1.000000e-01	1.081050e-07	
138	-3.600000e-01	-1.000000e-01	1.978394e-07	
139	-3.800000e-01	-1.000000e-01	3.494447e-07	
140	-4.000000e-01	-1.000000e-01	5.997717e-07	
141	-4.200000e-01	-1.000000e-01	1.008012e-06	
142	-4.400000e-01	-1.000000e-01	1.670972e-06	
143	-4.600000e-01	-1.000000e-01	2.747412e-06	
144	-4.800000e-01	-1.000000e-01	4.492718e-06	
145	-5.000000e-01	-1.000000e-01	7.298199e-06	
146	-5.200000e-01	-1.000000e-01	1.171441e-05	
147	-5.400000e-01	-1.000000e-01	1.842233e-05	
148	-5.600000e-01	-1.000000e-01	2.812236e-05	
149	-5.800000e-01	-1.000000e-01	4.135430e-05	
150	-6.000000e-01	-1.000000e-01	5.831626e-05	
151	-6.200000e-01	-1.000000e-01	7.877222e-05	
152	-6.400000e-01	-1.000000e-01	1.021098e-04	
153	-6.600000e-01	-1.000000e-01	1.275283e-04	
154	-6.800000e-01	-1.000000e-01	1.542457e-04	
155	-7.000000e-01	-1.000000e-01	1.816195e-04	
156	-7.200000e-01	-1.000000e-01	2.091728e-04	
157	-7.400000e-01	-1.000000e-01	2.365708e-04	
158	-7.600000e-01	-1.000000e-01	2.635846e-04	
159	-7.800000e-01	-1.000000e-01	2.900609e-04	
160	-8.000000e-01	-1.000000e-01	3.158982e-04	
161	-8.200000e-01	-1.000000e-01	3.410313e-04	
162	-8.400000e-01	-1.000000e-01	3.654195e-04	
163	-8.600000e-01	-1.000000e-01	3.890397e-04	
164	-8.800000e-01	-1.000000e-01	4.118808e-04	
165	-9.000000e-01	-1.000000e-01	4.339407e-04	
166	-9.200000e-01	-1.000000e-01	4.552230e-04	
167	-9.400000e-01	-1.000000e-01	4.757361e-04	
168	-9.600000e-01	-1.000000e-01	4.954913e-04	
169	-9.800000e-01	-1.000000e-01	5.145023e-04	
170	-1.000000e+00	-1.000000e-01	5.327842e-04	

Index   sweep           v(2)            vds#branch      
--------------------------------------------------------------------------------
171	-1.020000e+00	-1.000000e-01	5.503531e-04	
172	-1.040000e+00	-1.000000e-01	5.672256e-04	
173	-1.060000e+00	-1.000000e-01	5.834186e-04	
174	-1.080000e+00	-1.000000e-01	5.989489e-04	
175	-1.100000e+00	-1.000000e-01	6.138330e-04	
176	-1.120000e+00	-1.000000e-01	6.280868e-04	
177	-1.140000e+00	-1.000000e-01	6.417257e-04	
178	-1.160000e+00	-1.000000e-01	6.547641e-04	
179	-1.180000e+00	-1.000000e-01	6.672156e-04	
180	6.000000e-01	-1.000000e-01	2.356861e-11	
181	5.800000e-01	-1.000000e-01	2.402672e-11	
182	5.600000e-01	-1.000000e-01	2.460618e-11	
183	5.400000e-01	-1.000000e-01	2.522567e-11	
184	5.200000e-01	-1.000000e-01	2.592151e-11	
185	5.000000e-01	-1.000000e-01	2.670114e-11	
186	4.800000e-01	-1.000000e-01	2.757234e-11	
187	4.600000e-01	-1.000000e-01	2.854320e-11	
188	4.400000e-01	-1.000000e-01	2.962201e-11	
189	4.200000e-01	-1.000000e-01	3.081711e-11	
190	4.000000e-01	-1.000000e-01	3.213672e-11	
191	3.800000e-01	-1.000000e-01	3.358871e-11	
192	3.600000e-01	-1.000000e-01	3.518024e-11	
193	3.400000e-01	-1.000000e-01	3.691743e-11	
194	3.200000e-01	-1.000000e-01	3.880484e-11	
195	3.000000e-01	-1.000000e-01	4.084481e-11	
196	2.800000e-01	-1.000000e-01	4.303676e-11	
197	2.600000e-01	-1.000000e-01	4.537615e-11	
198	2.400000e-01	-1.000000e-01	4.785337e-11	
199	2.200000e-01	-1.000000e-01	5.045223e-11	
200	2.000000e-01	-1.000000e-01	5.314830e-11	
201	1.800000e-01	-1.000000e-01	5.590667e-11	
202	1.600000e-01	-1.000000e-01	5.867944e-11	
203	1.400000e-01	-1.000000e-01	6.140258e-11	
204	1.200000e-01	-1.000000e-01	6.399216e-11	
205	1.000000e-01	-1.000000e-01	6.633987e-11	
206	8.000000e-02	-1.000000e-01	6.830761e-11	
207	6.000000e-02	-1.000000e-01	6.972107e-11	
208	4.000000e-02	-1.000000e-01	7.036211e-11	
209	2.000000e-02	-1.000000e-01	6.995979e-11	
210	-1.734723e-16	-1.000000e-01	6.818006e-11	
211	-2.000000e-02	-1.000000e-01	6.461414e-11	
212	-4.000000e-02	-1.000000e-01	5.876649e-11	
213	-6.000000e-02	-1.000000e-01	5.004460e-11	
214	-8.000000e-02	-1.000000e-01	3.775614e-11	
215	-1.000000e-01	-1.000000e-01	2.112772e-11	
216	-1.200000e-01	-1.000000e-01	-6.217708e-13	
217	-1.400000e-01	-1.000000e-01	-2.807525e-11	
218	-1.600000e-01	-1.000000e-01	-6.109802e-11	
219	-1.800000e-01	-1.000000e-01	-9.759004e-11	
220	-2.000000e-01	-1.000000e-01	-1.305704e-10	
221	-2.200000e-01	-1.000000e-01	-1.415102e-10	
222	-2.400000e-01	-1.000000e-01	-8.542264e-11	
223	-2.600000e-01	-1.000000e-01	1.415468e-10	
224	-2.800000e-01	-1.000000e-01	7.698828e-10	
225	-3.000000e-01	-1.000000e-01	2.290885e-09	
226	-3.200000e-01	-1.000000e-01	5.703349e-09	
227	-3.400000e-01	-1.000000e-01	1.292573e-08	
228	-3.600000e-01	-1.000000e-01	2.741214e-08	

Index   sweep           v(2)            vds#branch      
--------------------------------------------------------------------------------
229	-3.800000e-01	-1.000000e-01	5.498874e-08	
230	-4.000000e-01	-1.000000e-01	1.049740e-07	
231	-4.200000e-01	-1.000000e-01	1.918652e-07	
232	-4.400000e-01	-1.000000e-01	3.382601e-07	
233	-4.600000e-01	-1.000000e-01	5.801444e-07	
234	-4.800000e-01	-1.000000e-01	9.762236e-07	
235	-5.000000e-01	-1.000000e-01	1.623689e-06	
236	-5.200000e-01	-1.000000e-01	2.683158e-06	
237	-5.400000e-01	-1.000000e-01	4.413415e-06	
238	-5.600000e-01	-1.000000e-01	7.208176e-06	
239	-5.800000e-01	-1.000000e-01	1.161089e-05	
240	-6.000000e-01	-1.000000e-01	1.827038e-05	
241	-6.200000e-01	-1.000000e-01	2.781474e-05	
242	-6.400000e-01	-1.000000e-01	4.067129e-05	
243	-6.600000e-01	-1.000000e-01	5.690996e-05	
244	-6.800000e-01	-1.000000e-01	7.619520e-05	
245	-7.000000e-01	-1.000000e-01	9.788738e-05	
246	-7.200000e-01	-1.000000e-01	1.212409e-04	
247	-7.400000e-01	-1.000000e-01	1.455783e-04	
248	-7.600000e-01	-1.000000e-01	1.703688e-04	
249	-7.800000e-01	-1.000000e-01	1.952294e-04	
250	-8.000000e-01	-1.000000e-01	2.198955e-04	
251	-8.200000e-01	-1.000000e-01	2.441879e-04	
252	-8.400000e-01	-1.000000e-01	2.679870e-04	
253	-8.600000e-01	-1.000000e-01	2.912140e-04	
254	-8.800000e-01	-1.000000e-01	3.138180e-04	
255	-9.000000e-01	-1.000000e-01	3.357679e-04	
256	-9.200000e-01	-1.000000e-01	3.570456e-04	
257	-9.400000e-01	-1.000000e-01	3.776429e-04	
258	-9.600000e-01	-1.000000e-01	3.975583e-04	
259	-9.800000e-01	-1.000000e-01	4.167948e-04	
260	-1.000000e+00	-1.000000e-01	4.353592e-04	
261	-1.020000e+00	-1.000000e-01	4.532605e-04	
262	-1.040000e+00	-1.000000e-01	4.705093e-04	
263	-1.060000e+00	-1.000000e-01	4.871176e-04	
264	-1.080000e+00	-1.000000e-01	5.030976e-04	
265	-1.100000e+00	-1.000000e-01	5.184620e-04	
266	-1.120000e+00	-1.000000e-01	5.332235e-04	
267	-1.140000e+00	-1.000000e-01	5.473944e-04	
268	-1.160000e+00	-1.000000e-01	5.609863e-04	
269	-1.180000e+00	-1.000000e-01	5.740105e-04	
270	6.000000e-01	-1.000000e-01	5.651669e-11	
271	5.800000e-01	-1.000000e-01	5.697480e-11	
272	5.600000e-01	-1.000000e-01	5.755425e-11	
273	5.400000e-01	-1.000000e-01	5.817374e-11	
274	5.200000e-01	-1.000000e-01	5.886959e-11	
275	5.000000e-01	-1.000000e-01	5.964921e-11	
276	4.800000e-01	-1.000000e-01	6.052041e-11	
277	4.600000e-01	-1.000000e-01	6.149127e-11	
278	4.400000e-01	-1.000000e-01	6.257008e-11	
279	4.200000e-01	-1.000000e-01	6.376518e-11	
280	4.000000e-01	-1.000000e-01	6.508480e-11	
281	3.800000e-01	-1.000000e-01	6.653678e-11	
282	3.600000e-01	-1.000000e-01	6.812831e-11	
283	3.400000e-01	-1.000000e-01	6.986550e-11	
284	3.200000e-01	-1.000000e-01	7.175291e-11	
285	3.000000e-01	-1.000000e-01	7.379289e-11	
286	2.800000e-01	-1.000000e-01	7.598484e-11	

Index   sweep           v(2)            vds#branch      
--------------------------------------------------------------------------------
287	2.600000e-01	-1.000000e-01	7.832423e-11	
288	2.400000e-01	-1.000000e-01	8.080144e-11	
289	2.200000e-01	-1.000000e-01	8.340031e-11	
290	2.000000e-01	-1.000000e-01	8.609637e-11	
291	1.800000e-01	-1.000000e-01	8.885474e-11	
292	1.600000e-01	-1.000000e-01	9.162750e-11	
293	1.400000e-01	-1.000000e-01	9.435063e-11	
294	1.200000e-01	-1.000000e-01	9.694017e-11	
295	1.000000e-01	-1.000000e-01	9.928781e-11	
296	8.000000e-02	-1.000000e-01	1.012554e-10	
297	6.000000e-02	-1.000000e-01	1.026684e-10	
298	4.000000e-02	-1.000000e-01	1.033085e-10	
299	2.000000e-02	-1.000000e-01	1.029039e-10	
300	-1.734723e-16	-1.000000e-01	1.011188e-10	
301	-2.000000e-02	-1.000000e-01	9.754029e-11	
302	-4.000000e-02	-1.000000e-01	9.166319e-11	
303	-6.000000e-02	-1.000000e-01	8.287230e-11	
304	-8.000000e-02	-1.000000e-01	7.042224e-11	
305	-1.000000e-01	-1.000000e-01	5.341553e-11	
306	-1.200000e-01	-1.000000e-01	3.078108e-11	
307	-1.400000e-01	-1.000000e-01	1.259517e-12	
308	-1.600000e-01	-1.000000e-01	-3.658874e-11	
309	-1.800000e-01	-1.000000e-01	-8.431407e-11	
310	-2.000000e-01	-1.000000e-01	-1.433546e-10	
311	-2.200000e-01	-1.000000e-01	-2.144424e-10	
312	-2.400000e-01	-1.000000e-01	-2.961347e-10	
313	-2.600000e-01	-1.000000e-01	-3.813190e-10	
314	-2.800000e-01	-1.000000e-01	-4.491339e-10	
315	-3.000000e-01	-1.000000e-01	-4.468264e-10	
316	-3.200000e-01	-1.000000e-01	-2.504251e-10	
317	-3.400000e-01	-1.000000e-01	4.165050e-10	
318	-3.600000e-01	-1.000000e-01	2.139884e-09	
319	-3.800000e-01	-1.000000e-01	6.092593e-09	
320	-4.000000e-01	-1.000000e-01	1.447386e-08	
321	-4.200000e-01	-1.000000e-01	3.112973e-08	
322	-4.400000e-01	-1.000000e-01	6.237593e-08	
323	-4.600000e-01	-1.000000e-01	1.181622e-07	
324	-4.800000e-01	-1.000000e-01	2.139998e-07	
325	-5.000000e-01	-1.000000e-01	3.744510e-07	
326	-5.200000e-01	-1.000000e-01	6.394103e-07	
327	-5.400000e-01	-1.000000e-01	1.075021e-06	
328	-5.600000e-01	-1.000000e-01	1.791797e-06	
329	-5.800000e-01	-1.000000e-01	2.972309e-06	
330	-6.000000e-01	-1.000000e-01	4.906653e-06	
331	-6.200000e-01	-1.000000e-01	8.022201e-06	
332	-6.400000e-01	-1.000000e-01	1.287707e-05	
333	-6.600000e-01	-1.000000e-01	2.008293e-05	
334	-6.800000e-01	-1.000000e-01	3.015504e-05	
335	-7.000000e-01	-1.000000e-01	4.334248e-05	
336	-7.200000e-01	-1.000000e-01	5.952282e-05	
337	-7.400000e-01	-1.000000e-01	7.822765e-05	
338	-7.600000e-01	-1.000000e-01	9.879645e-05	
339	-7.800000e-01	-1.000000e-01	1.205641e-04	
340	-8.000000e-01	-1.000000e-01	1.429783e-04	
341	-8.200000e-01	-1.000000e-01	1.656290e-04	
342	-8.400000e-01	-1.000000e-01	1.882287e-04	
343	-8.600000e-01	-1.000000e-01	2.105812e-04	
344	-8.800000e-01	-1.000000e-01	2.325548e-04	

Index   sweep           v(2)            vds#branch      
--------------------------------------------------------------------------------
345	-9.000000e-01	-1.000000e-01	2.540616e-04	
346	-9.200000e-01	-1.000000e-01	2.750439e-04	
347	-9.400000e-01	-1.000000e-01	2.954646e-04	
348	-9.600000e-01	-1.000000e-01	3.153009e-04	
349	-9.800000e-01	-1.000000e-01	3.345401e-04	
350	-1.000000e+00	-1.000000e-01	3.531763e-04	
351	-1.020000e+00	-1.000000e-01	3.712089e-04	
352	-1.040000e+00	-1.000000e-01	3.886405e-04	
353	-1.060000e+00	-1.000000e-01	4.054766e-04	
354	-1.080000e+00	-1.000000e-01	4.217240e-04	
355	-1.100000e+00	-1.000000e-01	4.373907e-04	
356	-1.120000e+00	-1.000000e-01	4.524855e-04	
357	-1.140000e+00	-1.000000e-01	4.670171e-04	
358	-1.160000e+00	-1.000000e-01	4.809945e-04	
359	-1.180000e+00	-1.000000e-01	4.944258e-04	
360	6.000000e-01	-1.000000e-01	1.196563e-10	
361	5.800000e-01	-1.000000e-01	1.201144e-10	
362	5.600000e-01	-1.000000e-01	1.206939e-10	
363	5.400000e-01	-1.000000e-01	1.213134e-10	
364	5.200000e-01	-1.000000e-01	1.220092e-10	
365	5.000000e-01	-1.000000e-01	1.227888e-10	
366	4.800000e-01	-1.000000e-01	1.236600e-10	
367	4.600000e-01	-1.000000e-01	1.246309e-10	
368	4.400000e-01	-1.000000e-01	1.257097e-10	
369	4.200000e-01	-1.000000e-01	1.269048e-10	
370	4.000000e-01	-1.000000e-01	1.282244e-10	
371	3.800000e-01	-1.000000e-01	1.296764e-10	
372	3.600000e-01	-1.000000e-01	1.312679e-10	
373	3.400000e-01	-1.000000e-01	1.330051e-10	
374	3.200000e-01	-1.000000e-01	1.348925e-10	
375	3.000000e-01	-1.000000e-01	1.369325e-10	
376	2.800000e-01	-1.000000e-01	1.391245e-10	
377	2.600000e-01	-1.000000e-01	1.414639e-10	
378	2.400000e-01	-1.000000e-01	1.439411e-10	
379	2.200000e-01	-1.000000e-01	1.465399e-10	
380	2.000000e-01	-1.000000e-01	1.492360e-10	
381	1.800000e-01	-1.000000e-01	1.519944e-10	
382	1.600000e-01	-1.000000e-01	1.547671e-10	
383	1.400000e-01	-1.000000e-01	1.574902e-10	
384	1.200000e-01	-1.000000e-01	1.600798e-10	
385	1.000000e-01	-1.000000e-01	1.624274e-10	
386	8.000000e-02	-1.000000e-01	1.643950e-10	
387	6.000000e-02	-1.000000e-01	1.658080e-10	
388	4.000000e-02	-1.000000e-01	1.664480e-10	
389	2.000000e-02	-1.000000e-01	1.660432e-10	
390	-1.734723e-16	-1.000000e-01	1.642577e-10	
391	-2.000000e-02	-1.000000e-01	1.606783e-10	
392	-4.000000e-02	-1.000000e-01	1.547990e-10	
393	-6.000000e-02	-1.000000e-01	1.460027e-10	
394	-8.000000e-02	-1.000000e-01	1.335400e-10	
395	-1.000000e-01	-1.000000e-01	1.165032e-10	
396	-1.200000e-01	-1.000000e-01	9.379721e-11	
397	-1.400000e-01	-1.000000e-01	6.410552e-11	
398	-1.600000e-01	-1.000000e-01	2.585308e-11	
399	-1.800000e-01	-1.000000e-01	-2.283175e-11	
400	-2.000000e-01	-1.000000e-01	-8.414714e-11	
401	-2.200000e-01	-1.000000e-01	-1.606180e-10	
402	-2.400000e-01	-1.000000e-01	-2.550120e-10	

Index   sweep           v(2)            vds#branch      
--------------------------------------------------------------------------------
403	-2.600000e-01	-1.000000e-01	-3.700371e-10	
404	-2.800000e-01	-1.000000e-01	-5.075084e-10	
405	-3.000000e-01	-1.000000e-01	-6.662639e-10	
406	-3.200000e-01	-1.000000e-01	-8.371809e-10	
407	-3.400000e-01	-1.000000e-01	-9.916524e-10	
408	-3.600000e-01	-1.000000e-01	-1.055896e-09	
409	-3.800000e-01	-1.000000e-01	-8.562599e-10	
410	-4.000000e-01	-1.000000e-01	-9.830422e-12	
411	-4.200000e-01	-1.000000e-01	2.276602e-09	
412	-4.400000e-01	-1.000000e-01	7.538406e-09	
413	-4.600000e-01	-1.000000e-01	1.853853e-08	
414	-4.800000e-01	-1.000000e-01	3.991680e-08	
415	-5.000000e-01	-1.000000e-01	7.907887e-08	
416	-5.200000e-01	-1.000000e-01	1.476111e-07	
417	-5.400000e-01	-1.000000e-01	2.638215e-07	
418	-5.600000e-01	-1.000000e-01	4.573623e-07	
419	-5.800000e-01	-1.000000e-01	7.773910e-07	
420	-6.000000e-01	-1.000000e-01	1.306460e-06	
421	-6.200000e-01	-1.000000e-01	2.182761e-06	
422	-6.400000e-01	-1.000000e-01	3.631399e-06	
423	-6.600000e-01	-1.000000e-01	5.997309e-06	
424	-6.800000e-01	-1.000000e-01	9.756729e-06	
425	-7.000000e-01	-1.000000e-01	1.547243e-05	
426	-7.200000e-01	-1.000000e-01	2.367480e-05	
427	-7.400000e-01	-1.000000e-01	3.470068e-05	
428	-7.600000e-01	-1.000000e-01	4.856457e-05	
429	-7.800000e-01	-1.000000e-01	6.493600e-05	
430	-8.000000e-01	-1.000000e-01	8.324802e-05	
431	-8.200000e-01	-1.000000e-01	1.028743e-04	
432	-8.400000e-01	-1.000000e-01	1.232668e-04	
433	-8.600000e-01	-1.000000e-01	1.440068e-04	
434	-8.800000e-01	-1.000000e-01	1.647970e-04	
435	-9.000000e-01	-1.000000e-01	1.854332e-04	
436	-9.200000e-01	-1.000000e-01	2.057774e-04	
437	-9.400000e-01	-1.000000e-01	2.257369e-04	
438	-9.600000e-01	-1.000000e-01	2.452501e-04	
439	-9.800000e-01	-1.000000e-01	2.642764e-04	
440	-1.000000e+00	-1.000000e-01	2.827897e-04	
441	-1.020000e+00	-1.000000e-01	3.007741e-04	
442	-1.040000e+00	-1.000000e-01	3.182207e-04	
443	-1.060000e+00	-1.000000e-01	3.351257e-04	
444	-1.080000e+00	-1.000000e-01	3.514886e-04	
445	-1.100000e+00	-1.000000e-01	3.673117e-04	
446	-1.120000e+00	-1.000000e-01	3.825984e-04	
447	-1.140000e+00	-1.000000e-01	3.973536e-04	
448	-1.160000e+00	-1.000000e-01	4.115823e-04	
449	-1.180000e+00	-1.000000e-01	4.252899e-04	

CPU time since last call: 0.040 seconds.

Total CPU time: 0.040 seconds.

Current dynamic memory usage = 262144,
Dynamic memory limit = -202887169.

