
Circuit: ** PMOSFET: Benchmarking Implementation of BSIM4 by Jane Xi 05/09/2003.

Doing analysis at TEMP = 373.150000 and TNOM = 300.150000
Warning: toxe, toxp and dtox all given and toxe != toxp + dtox; dtox ignored.
    ** PMOSFET: Benchmarking Implementation of BSIM4 by Jane Xi 05/09/2003.
    DC transfer characteristic  Sat Aug 27 16:01:02  2005
--------------------------------------------------------------------------------
Index   v-sweep         v(2)            vds#branch      
--------------------------------------------------------------------------------
0	6.000000e-01	-1.000000e-01	1.676661e-12	
1	5.800000e-01	-1.000000e-01	1.617711e-12	
2	5.600000e-01	-1.000000e-01	1.613498e-12	
3	5.400000e-01	-1.000000e-01	1.634735e-12	
4	5.200000e-01	-1.000000e-01	1.709852e-12	
5	5.000000e-01	-1.000000e-01	1.865023e-12	
6	4.800000e-01	-1.000000e-01	2.143096e-12	
7	4.600000e-01	-1.000000e-01	2.613504e-12	
8	4.400000e-01	-1.000000e-01	3.388135e-12	
9	4.200000e-01	-1.000000e-01	4.646772e-12	
10	4.000000e-01	-1.000000e-01	6.677814e-12	
11	3.800000e-01	-1.000000e-01	9.943450e-12	
12	3.600000e-01	-1.000000e-01	1.518392e-11	
13	3.400000e-01	-1.000000e-01	2.358420e-11	
14	3.200000e-01	-1.000000e-01	3.704037e-11	
15	3.000000e-01	-1.000000e-01	5.858494e-11	
16	2.800000e-01	-1.000000e-01	9.306525e-11	
17	2.600000e-01	-1.000000e-01	1.482246e-10	
18	2.400000e-01	-1.000000e-01	2.364223e-10	
19	2.200000e-01	-1.000000e-01	3.773660e-10	
20	2.000000e-01	-1.000000e-01	6.024408e-10	
21	1.800000e-01	-1.000000e-01	9.615523e-10	
22	1.600000e-01	-1.000000e-01	1.533902e-09	
23	1.400000e-01	-1.000000e-01	2.444888e-09	
24	1.200000e-01	-1.000000e-01	3.892466e-09	
25	1.000000e-01	-1.000000e-01	6.188008e-09	
26	8.000000e-02	-1.000000e-01	9.819134e-09	
27	6.000000e-02	-1.000000e-01	1.554542e-08	
28	4.000000e-02	-1.000000e-01	2.454252e-08	
29	2.000000e-02	-1.000000e-01	3.861636e-08	
30	-1.734723e-16	-1.000000e-01	6.051664e-08	
31	-2.000000e-02	-1.000000e-01	9.438794e-08	
32	-4.000000e-02	-1.000000e-01	1.464075e-07	
33	-6.000000e-02	-1.000000e-01	2.256714e-07	
34	-8.000000e-02	-1.000000e-01	3.454063e-07	
35	-1.000000e-01	-1.000000e-01	5.246104e-07	
36	-1.200000e-01	-1.000000e-01	7.902559e-07	
37	-1.400000e-01	-1.000000e-01	1.180233e-06	
38	-1.600000e-01	-1.000000e-01	1.747236e-06	
39	-1.800000e-01	-1.000000e-01	2.563726e-06	
40	-2.000000e-01	-1.000000e-01	3.727876e-06	
41	-2.200000e-01	-1.000000e-01	5.369783e-06	
42	-2.400000e-01	-1.000000e-01	7.656324e-06	
43	-2.600000e-01	-1.000000e-01	1.079182e-05	
44	-2.800000e-01	-1.000000e-01	1.501075e-05	
45	-3.000000e-01	-1.000000e-01	2.055884e-05	
46	-3.200000e-01	-1.000000e-01	2.766094e-05	
47	-3.400000e-01	-1.000000e-01	3.647934e-05	
48	-3.600000e-01	-1.000000e-01	4.707345e-05	
49	-3.800000e-01	-1.000000e-01	5.937797e-05	
50	-4.000000e-01	-1.000000e-01	7.321160e-05	
51	-4.200000e-01	-1.000000e-01	8.831258e-05	
52	-4.400000e-01	-1.000000e-01	1.043836e-04	
53	-4.600000e-01	-1.000000e-01	1.211297e-04	
54	-4.800000e-01	-1.000000e-01	1.382821e-04	

Index   v-sweep         v(2)            vds#branch      
--------------------------------------------------------------------------------
55	-5.000000e-01	-1.000000e-01	1.556101e-04	
56	-5.200000e-01	-1.000000e-01	1.729238e-04	
57	-5.400000e-01	-1.000000e-01	1.900723e-04	
58	-5.600000e-01	-1.000000e-01	2.069390e-04	
59	-5.800000e-01	-1.000000e-01	2.234367e-04	
60	-6.000000e-01	-1.000000e-01	2.395019e-04	
61	-6.200000e-01	-1.000000e-01	2.550902e-04	
62	-6.400000e-01	-1.000000e-01	2.701723e-04	
63	-6.600000e-01	-1.000000e-01	2.847303e-04	
64	-6.800000e-01	-1.000000e-01	2.987551e-04	
65	-7.000000e-01	-1.000000e-01	3.122445e-04	
66	-7.200000e-01	-1.000000e-01	3.252008e-04	
67	-7.400000e-01	-1.000000e-01	3.376305e-04	
68	-7.600000e-01	-1.000000e-01	3.495424e-04	
69	-7.800000e-01	-1.000000e-01	3.609474e-04	
70	-8.000000e-01	-1.000000e-01	3.718577e-04	
71	-8.200000e-01	-1.000000e-01	3.822867e-04	
72	-8.400000e-01	-1.000000e-01	3.922479e-04	
73	-8.600000e-01	-1.000000e-01	4.017556e-04	
74	-8.800000e-01	-1.000000e-01	4.108242e-04	
75	-9.000000e-01	-1.000000e-01	4.194680e-04	
76	-9.200000e-01	-1.000000e-01	4.277013e-04	
77	-9.400000e-01	-1.000000e-01	4.355382e-04	
78	-9.600000e-01	-1.000000e-01	4.429928e-04	
79	-9.800000e-01	-1.000000e-01	4.500788e-04	
80	-1.000000e+00	-1.000000e-01	4.568095e-04	
81	-1.020000e+00	-1.000000e-01	4.631981e-04	
82	-1.040000e+00	-1.000000e-01	4.692574e-04	
83	-1.060000e+00	-1.000000e-01	4.749997e-04	
84	-1.080000e+00	-1.000000e-01	4.804371e-04	
85	-1.100000e+00	-1.000000e-01	4.855815e-04	
86	-1.120000e+00	-1.000000e-01	4.904441e-04	
87	-1.140000e+00	-1.000000e-01	4.950359e-04	
88	-1.160000e+00	-1.000000e-01	4.993676e-04	
89	-1.180000e+00	-1.000000e-01	5.034494e-04	
90	-1.200000e+00	-1.000000e-01	5.072913e-04	
91	6.000000e-01	-1.000000e-01	1.258196e-11	
92	5.800000e-01	-1.000000e-01	1.250231e-11	
93	5.600000e-01	-1.000000e-01	1.245012e-11	
94	5.400000e-01	-1.000000e-01	1.240377e-11	
95	5.200000e-01	-1.000000e-01	1.237080e-11	
96	5.000000e-01	-1.000000e-01	1.235313e-11	
97	4.800000e-01	-1.000000e-01	1.235483e-11	
98	4.600000e-01	-1.000000e-01	1.238333e-11	
99	4.400000e-01	-1.000000e-01	1.245144e-11	
100	4.200000e-01	-1.000000e-01	1.258062e-11	
101	4.000000e-01	-1.000000e-01	1.280630e-11	
102	3.800000e-01	-1.000000e-01	1.318657e-11	
103	3.600000e-01	-1.000000e-01	1.381636e-11	
104	3.400000e-01	-1.000000e-01	1.485043e-11	
105	3.200000e-01	-1.000000e-01	1.654086e-11	
106	3.000000e-01	-1.000000e-01	1.929790e-11	
107	2.800000e-01	-1.000000e-01	2.378895e-11	
108	2.600000e-01	-1.000000e-01	3.109921e-11	
109	2.400000e-01	-1.000000e-01	4.299250e-11	
110	2.200000e-01	-1.000000e-01	6.233421e-11	
111	2.000000e-01	-1.000000e-01	9.377644e-11	
112	1.800000e-01	-1.000000e-01	1.448665e-10	

Index   v-sweep         v(2)            vds#branch      
--------------------------------------------------------------------------------
113	1.600000e-01	-1.000000e-01	2.278375e-10	
114	1.400000e-01	-1.000000e-01	3.624943e-10	
115	1.200000e-01	-1.000000e-01	5.808537e-10	
116	1.000000e-01	-1.000000e-01	9.345798e-10	
117	8.000000e-02	-1.000000e-01	1.506850e-09	
118	6.000000e-02	-1.000000e-01	2.431199e-09	
119	4.000000e-02	-1.000000e-01	3.921245e-09	
120	2.000000e-02	-1.000000e-01	6.317240e-09	
121	-1.734723e-16	-1.000000e-01	1.015824e-08	
122	-2.000000e-02	-1.000000e-01	1.629275e-08	
123	-4.000000e-02	-1.000000e-01	2.604597e-08	
124	-6.000000e-02	-1.000000e-01	4.146859e-08	
125	-8.000000e-02	-1.000000e-01	6.570002e-08	
126	-1.000000e-01	-1.000000e-01	1.034882e-07	
127	-1.200000e-01	-1.000000e-01	1.619179e-07	
128	-1.400000e-01	-1.000000e-01	2.514119e-07	
129	-1.600000e-01	-1.000000e-01	3.870852e-07	
130	-1.800000e-01	-1.000000e-01	5.905598e-07	
131	-2.000000e-01	-1.000000e-01	8.923834e-07	
132	-2.200000e-01	-1.000000e-01	1.335232e-06	
133	-2.400000e-01	-1.000000e-01	1.978062e-06	
134	-2.600000e-01	-1.000000e-01	2.901222e-06	
135	-2.800000e-01	-1.000000e-01	4.212107e-06	
136	-3.000000e-01	-1.000000e-01	6.050141e-06	
137	-3.200000e-01	-1.000000e-01	8.588794e-06	
138	-3.400000e-01	-1.000000e-01	1.203129e-05	
139	-3.600000e-01	-1.000000e-01	1.659632e-05	
140	-3.800000e-01	-1.000000e-01	2.249156e-05	
141	-4.000000e-01	-1.000000e-01	2.987673e-05	
142	-4.200000e-01	-1.000000e-01	3.882544e-05	
143	-4.400000e-01	-1.000000e-01	4.930092e-05	
144	-4.600000e-01	-1.000000e-01	6.115904e-05	
145	-4.800000e-01	-1.000000e-01	7.417756e-05	
146	-5.000000e-01	-1.000000e-01	8.809679e-05	
147	-5.200000e-01	-1.000000e-01	1.026552e-04	
148	-5.400000e-01	-1.000000e-01	1.176127e-04	
149	-5.600000e-01	-1.000000e-01	1.327624e-04	
150	-5.800000e-01	-1.000000e-01	1.479337e-04	
151	-6.000000e-01	-1.000000e-01	1.629908e-04	
152	-6.200000e-01	-1.000000e-01	1.778292e-04	
153	-6.400000e-01	-1.000000e-01	1.923702e-04	
154	-6.600000e-01	-1.000000e-01	2.065565e-04	
155	-6.800000e-01	-1.000000e-01	2.203479e-04	
156	-7.000000e-01	-1.000000e-01	2.337176e-04	
157	-7.200000e-01	-1.000000e-01	2.466487e-04	
158	-7.400000e-01	-1.000000e-01	2.591324e-04	
159	-7.600000e-01	-1.000000e-01	2.711656e-04	
160	-7.800000e-01	-1.000000e-01	2.827496e-04	
161	-8.000000e-01	-1.000000e-01	2.938889e-04	
162	-8.200000e-01	-1.000000e-01	3.045904e-04	
163	-8.400000e-01	-1.000000e-01	3.148627e-04	
164	-8.600000e-01	-1.000000e-01	3.247156e-04	
165	-8.800000e-01	-1.000000e-01	3.341597e-04	
166	-9.000000e-01	-1.000000e-01	3.432063e-04	
167	-9.200000e-01	-1.000000e-01	3.518667e-04	
168	-9.400000e-01	-1.000000e-01	3.601527e-04	
169	-9.600000e-01	-1.000000e-01	3.680761e-04	
170	-9.800000e-01	-1.000000e-01	3.756486e-04	

Index   v-sweep         v(2)            vds#branch      
--------------------------------------------------------------------------------
171	-1.000000e+00	-1.000000e-01	3.828817e-04	
172	-1.020000e+00	-1.000000e-01	3.897870e-04	
173	-1.040000e+00	-1.000000e-01	3.963757e-04	
174	-1.060000e+00	-1.000000e-01	4.026588e-04	
175	-1.080000e+00	-1.000000e-01	4.086471e-04	
176	-1.100000e+00	-1.000000e-01	4.143512e-04	
177	-1.120000e+00	-1.000000e-01	4.197813e-04	
178	-1.140000e+00	-1.000000e-01	4.249473e-04	
179	-1.160000e+00	-1.000000e-01	4.298590e-04	
180	-1.180000e+00	-1.000000e-01	4.345258e-04	
181	-1.200000e+00	-1.000000e-01	4.389567e-04	
182	6.000000e-01	-1.000000e-01	6.189965e-11	
183	5.800000e-01	-1.000000e-01	6.181796e-11	
184	5.600000e-01	-1.000000e-01	6.176090e-11	
185	5.400000e-01	-1.000000e-01	6.170761e-11	
186	5.200000e-01	-1.000000e-01	6.166335e-11	
187	5.000000e-01	-1.000000e-01	6.162733e-11	
188	4.800000e-01	-1.000000e-01	6.159920e-11	
189	4.600000e-01	-1.000000e-01	6.157924e-11	
190	4.400000e-01	-1.000000e-01	6.156862e-11	
191	4.200000e-01	-1.000000e-01	6.156987e-11	
192	4.000000e-01	-1.000000e-01	6.158769e-11	
193	3.800000e-01	-1.000000e-01	6.163027e-11	
194	3.600000e-01	-1.000000e-01	6.171148e-11	
195	3.400000e-01	-1.000000e-01	6.185448e-11	
196	3.200000e-01	-1.000000e-01	6.209767e-11	
197	3.000000e-01	-1.000000e-01	6.250450e-11	
198	2.800000e-01	-1.000000e-01	6.317964e-11	
199	2.600000e-01	-1.000000e-01	6.429544e-11	
200	2.400000e-01	-1.000000e-01	6.613572e-11	
201	2.200000e-01	-1.000000e-01	6.916743e-11	
202	2.000000e-01	-1.000000e-01	7.415868e-11	
203	1.800000e-01	-1.000000e-01	8.237231e-11	
204	1.600000e-01	-1.000000e-01	9.588363e-11	
205	1.400000e-01	-1.000000e-01	1.181011e-10	
206	1.200000e-01	-1.000000e-01	1.546188e-10	
207	1.000000e-01	-1.000000e-01	2.146092e-10	
208	8.000000e-02	-1.000000e-01	3.130952e-10	
209	6.000000e-02	-1.000000e-01	4.746461e-10	
210	4.000000e-02	-1.000000e-01	7.393693e-10	
211	2.000000e-02	-1.000000e-01	1.172587e-09	
212	-1.734723e-16	-1.000000e-01	1.880382e-09	
213	-2.000000e-02	-1.000000e-01	3.034406e-09	
214	-4.000000e-02	-1.000000e-01	4.911170e-09	
215	-6.000000e-02	-1.000000e-01	7.953634e-09	
216	-8.000000e-02	-1.000000e-01	1.286661e-08	
217	-1.000000e-01	-1.000000e-01	2.076239e-08	
218	-1.200000e-01	-1.000000e-01	3.337924e-08	
219	-1.400000e-01	-1.000000e-01	5.340268e-08	
220	-1.600000e-01	-1.000000e-01	8.492769e-08	
221	-1.800000e-01	-1.000000e-01	1.341083e-07	
222	-2.000000e-01	-1.000000e-01	2.100507e-07	
223	-2.200000e-01	-1.000000e-01	3.260193e-07	
224	-2.400000e-01	-1.000000e-01	5.010479e-07	
225	-2.600000e-01	-1.000000e-01	7.620808e-07	
226	-2.800000e-01	-1.000000e-01	1.146808e-06	
227	-3.000000e-01	-1.000000e-01	1.707356e-06	
228	-3.200000e-01	-1.000000e-01	2.514862e-06	

Index   v-sweep         v(2)            vds#branch      
--------------------------------------------------------------------------------
229	-3.400000e-01	-1.000000e-01	3.664602e-06	
230	-3.600000e-01	-1.000000e-01	5.280583e-06	
231	-3.800000e-01	-1.000000e-01	7.517565e-06	
232	-4.000000e-01	-1.000000e-01	1.055738e-05	
233	-4.200000e-01	-1.000000e-01	1.459614e-05	
234	-4.400000e-01	-1.000000e-01	1.982014e-05	
235	-4.600000e-01	-1.000000e-01	2.637219e-05	
236	-4.800000e-01	-1.000000e-01	3.431678e-05	
237	-5.000000e-01	-1.000000e-01	4.361869e-05	
238	-5.200000e-01	-1.000000e-01	5.414675e-05	
239	-5.400000e-01	-1.000000e-01	6.570128e-05	
240	-5.600000e-01	-1.000000e-01	7.805101e-05	
241	-5.800000e-01	-1.000000e-01	9.096471e-05	
242	-6.000000e-01	-1.000000e-01	1.042315e-04	
243	-6.200000e-01	-1.000000e-01	1.176704e-04	
244	-6.400000e-01	-1.000000e-01	1.311330e-04	
245	-6.600000e-01	-1.000000e-01	1.445019e-04	
246	-6.800000e-01	-1.000000e-01	1.576865e-04	
247	-7.000000e-01	-1.000000e-01	1.706191e-04	
248	-7.200000e-01	-1.000000e-01	1.832506e-04	
249	-7.400000e-01	-1.000000e-01	1.955463e-04	
250	-7.600000e-01	-1.000000e-01	2.074830e-04	
251	-7.800000e-01	-1.000000e-01	2.190461e-04	
252	-8.000000e-01	-1.000000e-01	2.302279e-04	
253	-8.200000e-01	-1.000000e-01	2.410254e-04	
254	-8.400000e-01	-1.000000e-01	2.514393e-04	
255	-8.600000e-01	-1.000000e-01	2.614733e-04	
256	-8.800000e-01	-1.000000e-01	2.711328e-04	
257	-9.000000e-01	-1.000000e-01	2.804249e-04	
258	-9.200000e-01	-1.000000e-01	2.893575e-04	
259	-9.400000e-01	-1.000000e-01	2.979394e-04	
260	-9.600000e-01	-1.000000e-01	3.061796e-04	
261	-9.800000e-01	-1.000000e-01	3.140878e-04	
262	-1.000000e+00	-1.000000e-01	3.216736e-04	
263	-1.020000e+00	-1.000000e-01	3.289467e-04	
264	-1.040000e+00	-1.000000e-01	3.359167e-04	
265	-1.060000e+00	-1.000000e-01	3.425934e-04	
266	-1.080000e+00	-1.000000e-01	3.489861e-04	
267	-1.100000e+00	-1.000000e-01	3.551044e-04	
268	-1.120000e+00	-1.000000e-01	3.609572e-04	
269	-1.140000e+00	-1.000000e-01	3.665537e-04	
270	-1.160000e+00	-1.000000e-01	3.719026e-04	
271	-1.180000e+00	-1.000000e-01	3.770124e-04	
272	-1.200000e+00	-1.000000e-01	3.818915e-04	
273	6.000000e-01	-1.000000e-01	2.546278e-10	
274	5.800000e-01	-1.000000e-01	2.545459e-10	
275	5.600000e-01	-1.000000e-01	2.544882e-10	
276	5.400000e-01	-1.000000e-01	2.544340e-10	
277	5.200000e-01	-1.000000e-01	2.543883e-10	
278	5.000000e-01	-1.000000e-01	2.543499e-10	
279	4.800000e-01	-1.000000e-01	2.543178e-10	
280	4.600000e-01	-1.000000e-01	2.542914e-10	
281	4.400000e-01	-1.000000e-01	2.542702e-10	
282	4.200000e-01	-1.000000e-01	2.542540e-10	
283	4.000000e-01	-1.000000e-01	2.542431e-10	
284	3.800000e-01	-1.000000e-01	2.542386e-10	
285	3.600000e-01	-1.000000e-01	2.542424e-10	
286	3.400000e-01	-1.000000e-01	2.542580e-10	

Index   v-sweep         v(2)            vds#branch      
--------------------------------------------------------------------------------
287	3.200000e-01	-1.000000e-01	2.542920e-10	
288	3.000000e-01	-1.000000e-01	2.543549e-10	
289	2.800000e-01	-1.000000e-01	2.544649e-10	
290	2.600000e-01	-1.000000e-01	2.546522e-10	
291	2.400000e-01	-1.000000e-01	2.549669e-10	
292	2.200000e-01	-1.000000e-01	2.554928e-10	
293	2.000000e-01	-1.000000e-01	2.563685e-10	
294	1.800000e-01	-1.000000e-01	2.578246e-10	
295	1.600000e-01	-1.000000e-01	2.602439e-10	
296	1.400000e-01	-1.000000e-01	2.642613e-10	
297	1.200000e-01	-1.000000e-01	2.709300e-10	
298	1.000000e-01	-1.000000e-01	2.819957e-10	
299	8.000000e-02	-1.000000e-01	3.003509e-10	
300	6.000000e-02	-1.000000e-01	3.307843e-10	
301	4.000000e-02	-1.000000e-01	3.812162e-10	
302	2.000000e-02	-1.000000e-01	4.647308e-10	
303	-1.734723e-16	-1.000000e-01	6.029104e-10	
304	-2.000000e-02	-1.000000e-01	8.312864e-10	
305	-4.000000e-02	-1.000000e-01	1.208212e-09	
306	-6.000000e-02	-1.000000e-01	1.829228e-09	
307	-8.000000e-02	-1.000000e-01	2.850162e-09	
308	-1.000000e-01	-1.000000e-01	4.523954e-09	
309	-1.200000e-01	-1.000000e-01	7.258751e-09	
310	-1.400000e-01	-1.000000e-01	1.170836e-08	
311	-1.600000e-01	-1.000000e-01	1.891088e-08	
312	-1.800000e-01	-1.000000e-01	3.049730e-08	
313	-2.000000e-01	-1.000000e-01	4.899848e-08	
314	-2.200000e-01	-1.000000e-01	7.828649e-08	
315	-2.400000e-01	-1.000000e-01	1.241932e-07	
316	-2.600000e-01	-1.000000e-01	1.953572e-07	
317	-2.800000e-01	-1.000000e-01	3.043628e-07	
318	-3.000000e-01	-1.000000e-01	4.692552e-07	
319	-3.200000e-01	-1.000000e-01	7.155506e-07	
320	-3.400000e-01	-1.000000e-01	1.078897e-06	
321	-3.600000e-01	-1.000000e-01	1.608530e-06	
322	-3.800000e-01	-1.000000e-01	2.371535e-06	
323	-4.000000e-01	-1.000000e-01	3.457526e-06	
324	-4.200000e-01	-1.000000e-01	4.982658e-06	
325	-4.400000e-01	-1.000000e-01	7.090896e-06	
326	-4.600000e-01	-1.000000e-01	9.949566e-06	
327	-4.800000e-01	-1.000000e-01	1.373605e-05	
328	-5.000000e-01	-1.000000e-01	1.861399e-05	
329	-5.200000e-01	-1.000000e-01	2.470153e-05	
330	-5.400000e-01	-1.000000e-01	3.204084e-05	
331	-5.600000e-01	-1.000000e-01	4.058254e-05	
332	-5.800000e-01	-1.000000e-01	5.019428e-05	
333	-6.000000e-01	-1.000000e-01	6.068883e-05	
334	-6.200000e-01	-1.000000e-01	7.185747e-05	
335	-6.400000e-01	-1.000000e-01	8.349658e-05	
336	-6.600000e-01	-1.000000e-01	9.542355e-05	
337	-6.800000e-01	-1.000000e-01	1.074837e-04	
338	-7.000000e-01	-1.000000e-01	1.195515e-04	
339	-7.200000e-01	-1.000000e-01	1.315282e-04	
340	-7.400000e-01	-1.000000e-01	1.433381e-04	
341	-7.600000e-01	-1.000000e-01	1.549252e-04	
342	-7.800000e-01	-1.000000e-01	1.662488e-04	
343	-8.000000e-01	-1.000000e-01	1.772802e-04	
344	-8.200000e-01	-1.000000e-01	1.880006e-04	

Index   v-sweep         v(2)            vds#branch      
--------------------------------------------------------------------------------
345	-8.400000e-01	-1.000000e-01	1.983980e-04	
346	-8.600000e-01	-1.000000e-01	2.084660e-04	
347	-8.800000e-01	-1.000000e-01	2.182024e-04	
348	-9.000000e-01	-1.000000e-01	2.276078e-04	
349	-9.200000e-01	-1.000000e-01	2.366854e-04	
350	-9.400000e-01	-1.000000e-01	2.454396e-04	
351	-9.600000e-01	-1.000000e-01	2.538763e-04	
352	-9.800000e-01	-1.000000e-01	2.620022e-04	
353	-1.000000e+00	-1.000000e-01	2.698246e-04	
354	-1.020000e+00	-1.000000e-01	2.773511e-04	
355	-1.040000e+00	-1.000000e-01	2.845896e-04	
356	-1.060000e+00	-1.000000e-01	2.915482e-04	
357	-1.080000e+00	-1.000000e-01	2.982349e-04	
358	-1.100000e+00	-1.000000e-01	3.046580e-04	
359	-1.120000e+00	-1.000000e-01	3.108253e-04	
360	-1.140000e+00	-1.000000e-01	3.167450e-04	
361	-1.160000e+00	-1.000000e-01	3.224248e-04	
362	-1.180000e+00	-1.000000e-01	3.278724e-04	
363	-1.200000e+00	-1.000000e-01	3.330954e-04	
364	6.000000e-01	-1.000000e-01	9.139998e-10	
365	5.800000e-01	-1.000000e-01	9.139178e-10	
366	5.600000e-01	-1.000000e-01	9.138601e-10	
367	5.400000e-01	-1.000000e-01	9.138058e-10	
368	5.200000e-01	-1.000000e-01	9.137598e-10	
369	5.000000e-01	-1.000000e-01	9.137211e-10	
370	4.800000e-01	-1.000000e-01	9.136884e-10	
371	4.600000e-01	-1.000000e-01	9.136610e-10	
372	4.400000e-01	-1.000000e-01	9.136382e-10	
373	4.200000e-01	-1.000000e-01	9.136192e-10	
374	4.000000e-01	-1.000000e-01	9.136039e-10	
375	3.800000e-01	-1.000000e-01	9.135918e-10	
376	3.600000e-01	-1.000000e-01	9.135832e-10	
377	3.400000e-01	-1.000000e-01	9.135782e-10	
378	3.200000e-01	-1.000000e-01	9.135780e-10	
379	3.000000e-01	-1.000000e-01	9.135843e-10	
380	2.800000e-01	-1.000000e-01	9.136003e-10	
381	2.600000e-01	-1.000000e-01	9.136317e-10	
382	2.400000e-01	-1.000000e-01	9.136880e-10	
383	2.200000e-01	-1.000000e-01	9.137853e-10	
384	2.000000e-01	-1.000000e-01	9.139507e-10	
385	1.800000e-01	-1.000000e-01	9.142294e-10	
386	1.600000e-01	-1.000000e-01	9.146972e-10	
387	1.400000e-01	-1.000000e-01	9.154809e-10	
388	1.200000e-01	-1.000000e-01	9.167925e-10	
389	1.000000e-01	-1.000000e-01	9.189862e-10	
390	8.000000e-02	-1.000000e-01	9.226539e-10	
391	6.000000e-02	-1.000000e-01	9.287842e-10	
392	4.000000e-02	-1.000000e-01	9.390270e-10	
393	2.000000e-02	-1.000000e-01	9.561349e-10	
394	-1.734723e-16	-1.000000e-01	9.846957e-10	
395	-2.000000e-02	-1.000000e-01	1.032349e-09	
396	-4.000000e-02	-1.000000e-01	1.111799e-09	
397	-6.000000e-02	-1.000000e-01	1.244136e-09	
398	-8.000000e-02	-1.000000e-01	1.464305e-09	
399	-1.000000e-01	-1.000000e-01	1.830041e-09	
400	-1.200000e-01	-1.000000e-01	2.436426e-09	
401	-1.400000e-01	-1.000000e-01	3.439378e-09	
402	-1.600000e-01	-1.000000e-01	5.093237e-09	

Index   v-sweep         v(2)            vds#branch      
--------------------------------------------------------------------------------
403	-1.800000e-01	-1.000000e-01	7.810189e-09	
404	-2.000000e-01	-1.000000e-01	1.225289e-08	
405	-2.200000e-01	-1.000000e-01	1.947634e-08	
406	-2.400000e-01	-1.000000e-01	3.114082e-08	
407	-2.600000e-01	-1.000000e-01	4.982398e-08	
408	-2.800000e-01	-1.000000e-01	7.946658e-08	
409	-3.000000e-01	-1.000000e-01	1.259926e-07	
410	-3.200000e-01	-1.000000e-01	1.981518e-07	
411	-3.400000e-01	-1.000000e-01	3.086453e-07	
412	-3.600000e-01	-1.000000e-01	4.756182e-07	
413	-3.800000e-01	-1.000000e-01	7.246395e-07	
414	-4.000000e-01	-1.000000e-01	1.091319e-06	
415	-4.200000e-01	-1.000000e-01	1.624684e-06	
416	-4.400000e-01	-1.000000e-01	2.391245e-06	
417	-4.600000e-01	-1.000000e-01	3.479256e-06	
418	-4.800000e-01	-1.000000e-01	5.001893e-06	
419	-5.000000e-01	-1.000000e-01	7.097162e-06	
420	-5.200000e-01	-1.000000e-01	9.921632e-06	
421	-5.400000e-01	-1.000000e-01	1.363526e-05	
422	-5.600000e-01	-1.000000e-01	1.837678e-05	
423	-5.800000e-01	-1.000000e-01	2.423375e-05	
424	-6.000000e-01	-1.000000e-01	3.121785e-05	
425	-6.200000e-01	-1.000000e-01	3.925767e-05	
426	-6.400000e-01	-1.000000e-01	4.821385e-05	
427	-6.600000e-01	-1.000000e-01	5.790799e-05	
428	-6.800000e-01	-1.000000e-01	6.815177e-05	
429	-7.000000e-01	-1.000000e-01	7.876775e-05	
430	-7.200000e-01	-1.000000e-01	8.960053e-05	
431	-7.400000e-01	-1.000000e-01	1.005207e-04	
432	-7.600000e-01	-1.000000e-01	1.114246e-04	
433	-7.800000e-01	-1.000000e-01	1.222315e-04	
434	-8.000000e-01	-1.000000e-01	1.328802e-04	
435	-8.200000e-01	-1.000000e-01	1.433255e-04	
436	-8.400000e-01	-1.000000e-01	1.535348e-04	
437	-8.600000e-01	-1.000000e-01	1.634856e-04	
438	-8.800000e-01	-1.000000e-01	1.731628e-04	
439	-9.000000e-01	-1.000000e-01	1.825574e-04	
440	-9.200000e-01	-1.000000e-01	1.916645e-04	
441	-9.400000e-01	-1.000000e-01	2.004825e-04	
442	-9.600000e-01	-1.000000e-01	2.090123e-04	
443	-9.800000e-01	-1.000000e-01	2.172568e-04	
444	-1.000000e+00	-1.000000e-01	2.252198e-04	
445	-1.020000e+00	-1.000000e-01	2.329064e-04	
446	-1.040000e+00	-1.000000e-01	2.403222e-04	
447	-1.060000e+00	-1.000000e-01	2.474733e-04	
448	-1.080000e+00	-1.000000e-01	2.543663e-04	
449	-1.100000e+00	-1.000000e-01	2.610077e-04	
450	-1.120000e+00	-1.000000e-01	2.674044e-04	
451	-1.140000e+00	-1.000000e-01	2.735633e-04	
452	-1.160000e+00	-1.000000e-01	2.794910e-04	
453	-1.180000e+00	-1.000000e-01	2.851945e-04	
454	-1.200000e+00	-1.000000e-01	2.906805e-04	

CPU time since last call: 0.048 seconds.

Total CPU time: 0.048 seconds.

Current dynamic memory usage = 131072,
Dynamic memory limit = -491521.

