
No. of Data Rows : 343

Circuit: ** PMOSFET: Benchmarking Implementation of BSIM4.1.0 by Weidong Liu 10/11/2000.

Doing analysis at TEMP = 300.150000 and TNOM = 300.150000
Warning: This model is BSIM4.2.1; you specified a wrong version number.
** PMOSFET: Benchmarking Implementation of BSIM4.1.0 by Weidong Liu 10/11/2000.
--------------------------------------------------------------------------------
Index   v-sweep         v(2)            vds#branch      
--------------------------------------------------------------------------------
0	6.000000e-01	-1.000000e-01	1.053433e-13	
1	5.500000e-01	-1.000000e-01	1.053433e-13	
2	5.000000e-01	-1.000000e-01	1.053381e-13	
3	4.500000e-01	-1.000000e-01	1.053381e-13	
4	4.000000e-01	-1.000000e-01	1.053381e-13	
5	3.500000e-01	-1.000000e-01	1.053381e-13	
6	3.000000e-01	-1.000000e-01	1.053381e-13	
7	2.500000e-01	-1.000000e-01	1.053433e-13	
8	2.000000e-01	-1.000000e-01	1.053746e-13	
9	1.500000e-01	-1.000000e-01	1.055621e-13	
10	1.000000e-01	-1.000000e-01	1.066196e-13	
11	5.000000e-02	-1.000000e-01	1.125219e-13	
12	6.938894e-17	-1.000000e-01	1.452423e-13	
13	-5.000000e-02	-1.000000e-01	3.269107e-13	
14	-1.000000e-01	-1.000000e-01	2.620955e-12	
15	-1.500000e-01	-1.000000e-01	1.406335e-11	
16	-2.000000e-01	-1.000000e-01	7.748692e-11	
17	-2.500000e-01	-1.000000e-01	4.282413e-10	
18	-3.000000e-01	-1.000000e-01	2.357714e-09	
19	-3.500000e-01	-1.000000e-01	1.284094e-08	
20	-4.000000e-01	-1.000000e-01	6.824786e-08	
21	-4.500000e-01	-1.000000e-01	3.450883e-07	
22	-5.000000e-01	-1.000000e-01	1.602571e-06	
23	-5.500000e-01	-1.000000e-01	6.667155e-06	
24	-6.000000e-01	-1.000000e-01	2.454873e-05	
25	-6.500000e-01	-1.000000e-01	7.402310e-05	
26	-7.000000e-01	-1.000000e-01	1.616656e-04	
27	-7.500000e-01	-1.000000e-01	2.605501e-04	
28	-8.000000e-01	-1.000000e-01	3.473995e-04	
29	-8.500000e-01	-1.000000e-01	4.187323e-04	
30	-9.000000e-01	-1.000000e-01	4.779357e-04	
31	-9.500000e-01	-1.000000e-01	5.285765e-04	
32	-1.000000e+00	-1.000000e-01	5.729916e-04	
33	-1.050000e+00	-1.000000e-01	6.125777e-04	
34	-1.100000e+00	-1.000000e-01	6.481917e-04	
35	-1.150000e+00	-1.000000e-01	6.804027e-04	
36	-1.200000e+00	-1.000000e-01	7.096260e-04	
37	-1.250000e+00	-1.000000e-01	7.361889e-04	
38	-1.300000e+00	-1.000000e-01	7.603635e-04	
39	-1.350000e+00	-1.000000e-01	7.823838e-04	
40	-1.400000e+00	-1.000000e-01	8.024538e-04	
41	-1.450000e+00	-1.000000e-01	8.207542e-04	
42	-1.500000e+00	-1.000000e-01	8.382248e-04	
43	-1.550000e+00	-1.000000e-01	8.533799e-04	
44	-1.600000e+00	-1.000000e-01	8.672045e-04	
45	-1.650000e+00	-1.000000e-01	8.797900e-04	
46	-1.700000e+00	-1.000000e-01	8.911945e-04	
47	-1.750000e+00	-1.000000e-01	9.015505e-04	
48	-1.800000e+00	-1.000000e-01	9.109508e-04	
49	6.000000e-01	-1.000000e-01	4.054480e-13	
50	5.500000e-01	-1.000000e-01	4.054480e-13	
51	5.000000e-01	-1.000000e-01	4.054480e-13	
52	4.500000e-01	-1.000000e-01	4.054480e-13	
53	4.000000e-01	-1.000000e-01	4.054480e-13	
54	3.500000e-01	-1.000000e-01	4.054480e-13	

Index   v-sweep         v(2)            vds#branch      
--------------------------------------------------------------------------------
55	3.000000e-01	-1.000000e-01	4.054428e-13	
56	2.500000e-01	-1.000000e-01	4.054480e-13	
57	2.000000e-01	-1.000000e-01	4.054584e-13	
58	1.500000e-01	-1.000000e-01	4.055053e-13	
59	1.000000e-01	-1.000000e-01	4.058074e-13	
60	5.000000e-02	-1.000000e-01	4.074953e-13	
61	6.938894e-17	-1.000000e-01	4.171640e-13	
62	-5.000000e-02	-1.000000e-01	4.722745e-13	
63	-1.000000e-01	-1.000000e-01	7.865592e-13	
64	-1.500000e-01	-1.000000e-01	4.925366e-12	
65	-2.000000e-01	-1.000000e-01	2.616004e-11	
66	-2.500000e-01	-1.000000e-01	1.469813e-10	
67	-3.000000e-01	-1.000000e-01	8.322223e-10	
68	-3.500000e-01	-1.000000e-01	4.688914e-09	
69	-4.000000e-01	-1.000000e-01	2.601228e-08	
70	-4.500000e-01	-1.000000e-01	1.393991e-07	
71	-5.000000e-01	-1.000000e-01	6.986384e-07	
72	-5.500000e-01	-1.000000e-01	3.159203e-06	
73	-6.000000e-01	-1.000000e-01	1.267917e-05	
74	-6.500000e-01	-1.000000e-01	4.359406e-05	
75	-7.000000e-01	-1.000000e-01	1.133675e-04	
76	-7.500000e-01	-1.000000e-01	2.090984e-04	
77	-8.000000e-01	-1.000000e-01	3.009464e-04	
78	-8.500000e-01	-1.000000e-01	3.775701e-04	
79	-9.000000e-01	-1.000000e-01	4.406115e-04	
80	-9.500000e-01	-1.000000e-01	4.939148e-04	
81	-1.000000e+00	-1.000000e-01	5.402921e-04	
82	-1.050000e+00	-1.000000e-01	5.814446e-04	
83	-1.100000e+00	-1.000000e-01	6.183893e-04	
84	-1.150000e+00	-1.000000e-01	6.517756e-04	
85	-1.200000e+00	-1.000000e-01	6.820598e-04	
86	-1.250000e+00	-1.000000e-01	7.095920e-04	
87	-1.300000e+00	-1.000000e-01	7.346585e-04	
88	-1.350000e+00	-1.000000e-01	7.575033e-04	
89	-1.400000e+00	-1.000000e-01	7.783383e-04	
90	-1.450000e+00	-1.000000e-01	7.973504e-04	
91	-1.500000e+00	-1.000000e-01	8.155081e-04	
92	-1.550000e+00	-1.000000e-01	8.312821e-04	
93	-1.600000e+00	-1.000000e-01	8.456874e-04	
94	-1.650000e+00	-1.000000e-01	8.588178e-04	
95	-1.700000e+00	-1.000000e-01	8.707327e-04	
96	-1.750000e+00	-1.000000e-01	8.815690e-04	
97	-1.800000e+00	-1.000000e-01	8.914223e-04	
98	6.000000e-01	-1.000000e-01	7.054589e-13	
99	5.500000e-01	-1.000000e-01	7.054589e-13	
100	5.000000e-01	-1.000000e-01	7.054589e-13	
101	4.500000e-01	-1.000000e-01	7.054589e-13	
102	4.000000e-01	-1.000000e-01	7.054589e-13	
103	3.500000e-01	-1.000000e-01	7.054589e-13	
104	3.000000e-01	-1.000000e-01	7.054537e-13	
105	2.500000e-01	-1.000000e-01	7.054537e-13	
106	2.000000e-01	-1.000000e-01	7.054537e-13	
107	1.500000e-01	-1.000000e-01	7.054641e-13	
108	1.000000e-01	-1.000000e-01	7.055735e-13	
109	5.000000e-02	-1.000000e-01	7.062038e-13	
110	6.938894e-17	-1.000000e-01	7.098556e-13	
111	-5.000000e-02	-1.000000e-01	7.310528e-13	
112	-1.000000e-01	-1.000000e-01	8.540578e-13	

Index   v-sweep         v(2)            vds#branch      
--------------------------------------------------------------------------------
113	-1.500000e-01	-1.000000e-01	1.568213e-12	
114	-2.000000e-01	-1.000000e-01	1.124001e-11	
115	-2.500000e-01	-1.000000e-01	6.179035e-11	
116	-3.000000e-01	-1.000000e-01	3.542409e-10	
117	-3.500000e-01	-1.000000e-01	2.037532e-09	
118	-4.000000e-01	-1.000000e-01	1.160910e-08	
119	-4.500000e-01	-1.000000e-01	6.454323e-08	
120	-5.000000e-01	-1.000000e-01	3.407946e-07	
121	-5.500000e-01	-1.000000e-01	1.644733e-06	
122	-6.000000e-01	-1.000000e-01	7.056112e-06	
123	-6.500000e-01	-1.000000e-01	2.645105e-05	
124	-7.000000e-01	-1.000000e-01	7.899503e-05	
125	-7.500000e-01	-1.000000e-01	1.668572e-04	
126	-8.000000e-01	-1.000000e-01	2.611309e-04	
127	-8.500000e-01	-1.000000e-01	3.424309e-04	
128	-9.000000e-01	-1.000000e-01	4.091598e-04	
129	-9.500000e-01	-1.000000e-01	4.649938e-04	
130	-1.000000e+00	-1.000000e-01	5.131646e-04	
131	-1.050000e+00	-1.000000e-01	5.556954e-04	
132	-1.100000e+00	-1.000000e-01	5.937812e-04	
133	-1.150000e+00	-1.000000e-01	6.281607e-04	
134	-1.200000e+00	-1.000000e-01	6.593349e-04	
135	-1.250000e+00	-1.000000e-01	6.876773e-04	
136	-1.300000e+00	-1.000000e-01	7.134881e-04	
137	-1.350000e+00	-1.000000e-01	7.370203e-04	
138	-1.400000e+00	-1.000000e-01	7.584928e-04	
139	-1.450000e+00	-1.000000e-01	7.780980e-04	
140	-1.500000e+00	-1.000000e-01	7.960063e-04	
141	-1.550000e+00	-1.000000e-01	8.131182e-04	
142	-1.600000e+00	-1.000000e-01	8.280060e-04	
143	-1.650000e+00	-1.000000e-01	8.415898e-04	
144	-1.700000e+00	-1.000000e-01	8.539293e-04	
145	-1.750000e+00	-1.000000e-01	8.651649e-04	
146	-1.800000e+00	-1.000000e-01	8.753946e-04	
147	6.000000e-01	-1.000000e-01	1.005454e-12	
148	5.500000e-01	-1.000000e-01	1.005454e-12	
149	5.000000e-01	-1.000000e-01	1.005454e-12	
150	4.500000e-01	-1.000000e-01	1.005454e-12	
151	4.000000e-01	-1.000000e-01	1.005454e-12	
152	3.500000e-01	-1.000000e-01	1.005454e-12	
153	3.000000e-01	-1.000000e-01	1.005454e-12	
154	2.500000e-01	-1.000000e-01	1.005449e-12	
155	2.000000e-01	-1.000000e-01	1.005454e-12	
156	1.500000e-01	-1.000000e-01	1.005465e-12	
157	1.000000e-01	-1.000000e-01	1.005511e-12	
158	5.000000e-02	-1.000000e-01	1.005782e-12	
159	6.938894e-17	-1.000000e-01	1.007413e-12	
160	-5.000000e-02	-1.000000e-01	1.017009e-12	
161	-1.000000e-01	-1.000000e-01	1.073432e-12	
162	-1.500000e-01	-1.000000e-01	1.405340e-12	
163	-2.000000e-01	-1.000000e-01	5.994637e-12	
164	-2.500000e-01	-1.000000e-01	3.032618e-11	
165	-3.000000e-01	-1.000000e-01	1.730916e-10	
166	-3.500000e-01	-1.000000e-01	1.007739e-09	
167	-4.000000e-01	-1.000000e-01	5.844859e-09	
168	-4.500000e-01	-1.000000e-01	3.330892e-08	
169	-5.000000e-01	-1.000000e-01	1.823863e-07	
170	-5.500000e-01	-1.000000e-01	9.254345e-07	

Index   v-sweep         v(2)            vds#branch      
--------------------------------------------------------------------------------
171	-6.000000e-01	-1.000000e-01	4.196855e-06	
172	-6.500000e-01	-1.000000e-01	1.673706e-05	
173	-7.000000e-01	-1.000000e-01	5.538080e-05	
174	-7.500000e-01	-1.000000e-01	1.326368e-04	
175	-8.000000e-01	-1.000000e-01	2.267089e-04	
176	-8.500000e-01	-1.000000e-01	3.118361e-04	
177	-9.000000e-01	-1.000000e-01	3.820465e-04	
178	-9.500000e-01	-1.000000e-01	4.403014e-04	
179	-1.000000e+00	-1.000000e-01	4.901418e-04	
180	-1.050000e+00	-1.000000e-01	5.339128e-04	
181	-1.100000e+00	-1.000000e-01	5.729989e-04	
182	-1.150000e+00	-1.000000e-01	6.082355e-04	
183	-1.200000e+00	-1.000000e-01	6.401714e-04	
184	-1.250000e+00	-1.000000e-01	6.692046e-04	
185	-1.300000e+00	-1.000000e-01	6.956488e-04	
186	-1.350000e+00	-1.000000e-01	7.197656e-04	
187	-1.400000e+00	-1.000000e-01	7.417799e-04	
188	-1.450000e+00	-1.000000e-01	7.618890e-04	
189	-1.500000e+00	-1.000000e-01	7.802672e-04	
190	-1.550000e+00	-1.000000e-01	7.978332e-04	
191	-1.600000e+00	-1.000000e-01	8.131313e-04	
192	-1.650000e+00	-1.000000e-01	8.271000e-04	
193	-1.700000e+00	-1.000000e-01	8.397997e-04	
194	-1.750000e+00	-1.000000e-01	8.513742e-04	
195	-1.800000e+00	-1.000000e-01	8.619231e-04	
196	6.000000e-01	-1.000000e-01	1.305449e-12	
197	5.500000e-01	-1.000000e-01	1.305449e-12	
198	5.000000e-01	-1.000000e-01	1.305449e-12	
199	4.500000e-01	-1.000000e-01	1.305449e-12	
200	4.000000e-01	-1.000000e-01	1.305449e-12	
201	3.500000e-01	-1.000000e-01	1.305449e-12	
202	3.000000e-01	-1.000000e-01	1.305449e-12	
203	2.500000e-01	-1.000000e-01	1.305444e-12	
204	2.000000e-01	-1.000000e-01	1.305449e-12	
205	1.500000e-01	-1.000000e-01	1.305449e-12	
206	1.000000e-01	-1.000000e-01	1.305470e-12	
207	5.000000e-02	-1.000000e-01	1.305616e-12	
208	6.938894e-17	-1.000000e-01	1.306434e-12	
209	-5.000000e-02	-1.000000e-01	1.311347e-12	
210	-1.000000e-01	-1.000000e-01	1.340525e-12	
211	-1.500000e-01	-1.000000e-01	1.513842e-12	
212	-2.000000e-01	-1.000000e-01	3.948583e-12	
213	-2.500000e-01	-1.000000e-01	1.699758e-11	
214	-3.000000e-01	-1.000000e-01	9.437757e-11	
215	-3.500000e-01	-1.000000e-01	5.520057e-10	
216	-4.000000e-01	-1.000000e-01	3.240746e-09	
217	-4.500000e-01	-1.000000e-01	1.879280e-08	
218	-5.000000e-01	-1.000000e-01	1.056120e-07	
219	-5.500000e-01	-1.000000e-01	5.567452e-07	
220	-6.000000e-01	-1.000000e-01	2.645132e-06	
221	-6.500000e-01	-1.000000e-01	1.107608e-05	
222	-7.000000e-01	-1.000000e-01	3.948527e-05	
223	-7.500000e-01	-1.000000e-01	1.054628e-04	
224	-8.000000e-01	-1.000000e-01	1.970015e-04	
225	-8.500000e-01	-1.000000e-01	2.849527e-04	
226	-9.000000e-01	-1.000000e-01	3.583700e-04	
227	-9.500000e-01	-1.000000e-01	4.189336e-04	
228	-1.000000e+00	-1.000000e-01	4.703411e-04	

Index   v-sweep         v(2)            vds#branch      
--------------------------------------------------------------------------------
229	-1.050000e+00	-1.000000e-01	5.152422e-04	
230	-1.100000e+00	-1.000000e-01	5.552166e-04	
231	-1.150000e+00	-1.000000e-01	5.912023e-04	
232	-1.200000e+00	-1.000000e-01	6.237980e-04	
233	-1.250000e+00	-1.000000e-01	6.534269e-04	
234	-1.300000e+00	-1.000000e-01	6.804163e-04	
235	-1.350000e+00	-1.000000e-01	7.050357e-04	
236	-1.400000e+00	-1.000000e-01	7.275156e-04	
237	-1.450000e+00	-1.000000e-01	7.480576e-04	
238	-1.500000e+00	-1.000000e-01	7.668395e-04	
239	-1.550000e+00	-1.000000e-01	7.847955e-04	
240	-1.600000e+00	-1.000000e-01	8.004459e-04	
241	-1.650000e+00	-1.000000e-01	8.147450e-04	
242	-1.700000e+00	-1.000000e-01	8.277540e-04	
243	-1.750000e+00	-1.000000e-01	8.396192e-04	
244	-1.800000e+00	-1.000000e-01	8.504421e-04	
245	6.000000e-01	-1.000000e-01	1.605450e-12	
246	5.500000e-01	-1.000000e-01	1.605450e-12	
247	5.000000e-01	-1.000000e-01	1.605450e-12	
248	4.500000e-01	-1.000000e-01	1.605450e-12	
249	4.000000e-01	-1.000000e-01	1.605450e-12	
250	3.500000e-01	-1.000000e-01	1.605450e-12	
251	3.000000e-01	-1.000000e-01	1.605450e-12	
252	2.500000e-01	-1.000000e-01	1.605440e-12	
253	2.000000e-01	-1.000000e-01	1.605440e-12	
254	1.500000e-01	-1.000000e-01	1.605450e-12	
255	1.000000e-01	-1.000000e-01	1.605455e-12	
256	5.000000e-02	-1.000000e-01	1.605528e-12	
257	6.938894e-17	-1.000000e-01	1.605997e-12	
258	-5.000000e-02	-1.000000e-01	1.608763e-12	
259	-1.000000e-01	-1.000000e-01	1.625355e-12	
260	-1.500000e-01	-1.000000e-01	1.724694e-12	
261	-2.000000e-01	-1.000000e-01	2.319397e-12	
262	-2.500000e-01	-1.000000e-01	1.077465e-11	
263	-3.000000e-01	-1.000000e-01	5.643791e-11	
264	-3.500000e-01	-1.000000e-01	3.288995e-10	
265	-4.000000e-01	-1.000000e-01	1.946339e-09	
266	-4.500000e-01	-1.000000e-01	1.143047e-08	
267	-5.000000e-01	-1.000000e-01	6.547438e-08	
268	-5.500000e-01	-1.000000e-01	3.553720e-07	
269	-6.000000e-01	-1.000000e-01	1.754825e-06	
270	-6.500000e-01	-1.000000e-01	7.654593e-06	
271	-7.000000e-01	-1.000000e-01	2.883555e-05	
272	-7.500000e-01	-1.000000e-01	8.429165e-05	
273	-8.000000e-01	-1.000000e-01	1.715501e-04	
274	-8.500000e-01	-1.000000e-01	2.612726e-04	
275	-9.000000e-01	-1.000000e-01	3.375596e-04	
276	-9.500000e-01	-1.000000e-01	4.003045e-04	
277	-1.000000e+00	-1.000000e-01	4.531845e-04	
278	-1.050000e+00	-1.000000e-01	4.991215e-04	
279	-1.100000e+00	-1.000000e-01	5.398909e-04	
280	-1.150000e+00	-1.000000e-01	5.765356e-04	
281	-1.200000e+00	-1.000000e-01	6.097065e-04	
282	-1.250000e+00	-1.000000e-01	6.398523e-04	
283	-1.300000e+00	-1.000000e-01	6.673136e-04	
284	-1.350000e+00	-1.000000e-01	6.923677e-04	
285	-1.400000e+00	-1.000000e-01	7.152502e-04	
286	-1.450000e+00	-1.000000e-01	7.361663e-04	

Index   v-sweep         v(2)            vds#branch      
--------------------------------------------------------------------------------
287	-1.500000e+00	-1.000000e-01	7.552969e-04	
288	-1.550000e+00	-1.000000e-01	7.728028e-04	
289	-1.600000e+00	-1.000000e-01	7.895454e-04	
290	-1.650000e+00	-1.000000e-01	8.041291e-04	
291	-1.700000e+00	-1.000000e-01	8.174051e-04	
292	-1.750000e+00	-1.000000e-01	8.295213e-04	
293	-1.800000e+00	-1.000000e-01	8.405807e-04	
294	6.000000e-01	-1.000000e-01	1.905456e-12	
295	5.500000e-01	-1.000000e-01	1.905456e-12	
296	5.000000e-01	-1.000000e-01	1.905456e-12	
297	4.500000e-01	-1.000000e-01	1.905456e-12	
298	4.000000e-01	-1.000000e-01	1.905456e-12	
299	3.500000e-01	-1.000000e-01	1.905456e-12	
300	3.000000e-01	-1.000000e-01	1.905456e-12	
301	2.500000e-01	-1.000000e-01	1.905450e-12	
302	2.000000e-01	-1.000000e-01	1.905450e-12	
303	1.500000e-01	-1.000000e-01	1.905450e-12	
304	1.000000e-01	-1.000000e-01	1.905456e-12	
305	5.000000e-02	-1.000000e-01	1.905513e-12	
306	6.938894e-17	-1.000000e-01	1.905784e-12	
307	-5.000000e-02	-1.000000e-01	1.907482e-12	
308	-1.000000e-01	-1.000000e-01	1.917682e-12	
309	-1.500000e-01	-1.000000e-01	1.979164e-12	
310	-2.000000e-01	-1.000000e-01	2.349653e-12	
311	-2.500000e-01	-1.000000e-01	7.670671e-12	
312	-3.000000e-01	-1.000000e-01	3.661008e-11	
313	-3.500000e-01	-1.000000e-01	2.105057e-10	
314	-4.000000e-01	-1.000000e-01	1.251164e-09	
315	-4.500000e-01	-1.000000e-01	7.416967e-09	
316	-5.000000e-01	-1.000000e-01	4.309824e-08	
317	-5.500000e-01	-1.000000e-01	2.392296e-07	
318	-6.000000e-01	-1.000000e-01	1.219303e-06	
319	-6.500000e-01	-1.000000e-01	5.508608e-06	
320	-7.000000e-01	-1.000000e-01	2.164994e-05	
321	-7.500000e-01	-1.000000e-01	6.804211e-05	
322	-8.000000e-01	-1.000000e-01	1.499620e-04	
323	-8.500000e-01	-1.000000e-01	2.404579e-04	
324	-9.000000e-01	-1.000000e-01	3.192332e-04	
325	-9.500000e-01	-1.000000e-01	3.840128e-04	
326	-1.000000e+00	-1.000000e-01	4.382706e-04	
327	-1.050000e+00	-1.000000e-01	4.851582e-04	
328	-1.100000e+00	-1.000000e-01	5.266408e-04	
329	-1.150000e+00	-1.000000e-01	5.638672e-04	
330	-1.200000e+00	-1.000000e-01	5.975408e-04	
331	-1.250000e+00	-1.000000e-01	6.281361e-04	
332	-1.300000e+00	-1.000000e-01	6.560069e-04	
333	-1.350000e+00	-1.000000e-01	6.814376e-04	
334	-1.400000e+00	-1.000000e-01	7.046687e-04	
335	-1.450000e+00	-1.000000e-01	7.259087e-04	
336	-1.500000e+00	-1.000000e-01	7.453413e-04	
337	-1.550000e+00	-1.000000e-01	7.631294e-04	
338	-1.600000e+00	-1.000000e-01	7.801450e-04	
339	-1.650000e+00	-1.000000e-01	7.949756e-04	
340	-1.700000e+00	-1.000000e-01	8.084827e-04	
341	-1.750000e+00	-1.000000e-01	8.208161e-04	
342	-1.800000e+00	-1.000000e-01	8.320800e-04	




