
Circuit: ** NMOSFET: Benchmarking Implementation of BSIM4.1.0 by Weidong Liu 10/11/2000.

Circuit: ** NMOSFET: Benchmarking Implementation of BSIM4.1.0 by Weidong Liu 10/11/2000.
Date: Wed Oct 11 05:32:23  2000


** NMOSFET: Benchmarking Implementation of BSIM4.1.0 by Weidong Liu 10/11/2000.
DC transfer characteristic  Wed Oct 11 05:32:22  2000
--------------------------------------------------------------------------------
Index   sweep           v(2)            vds#branch      
--------------------------------------------------------------------------------
0	-6.000000e-01	1.000000e-01	-1.053463e-13	
1	-5.500000e-01	1.000000e-01	-1.053463e-13	
2	-5.000000e-01	1.000000e-01	-1.053393e-13	
3	-4.500000e-01	1.000000e-01	-1.053255e-13	
4	-4.000000e-01	1.000000e-01	-1.053393e-13	
5	-3.500000e-01	1.000000e-01	-1.053255e-13	
6	-3.000000e-01	1.000000e-01	-1.053393e-13	
7	-2.500000e-01	1.000000e-01	-1.053463e-13	
8	-2.000000e-01	1.000000e-01	-1.054226e-13	
9	-1.500000e-01	1.000000e-01	-1.058667e-13	
10	-1.000000e-01	1.000000e-01	-1.083161e-13	
11	-5.000000e-02	1.000000e-01	-1.219094e-13	
12	-6.938894e-17	1.000000e-01	-1.973699e-13	
13	5.000000e-02	1.000000e-01	-6.162779e-13	
14	1.000000e-01	1.000000e-01	-2.935097e-12	
15	1.500000e-01	1.000000e-01	-1.566226e-11	
16	2.000000e-01	1.000000e-01	-8.495561e-11	
17	2.500000e-01	1.000000e-01	-4.587771e-10	
18	3.000000e-01	1.000000e-01	-2.451490e-09	
19	3.500000e-01	1.000000e-01	-1.288139e-08	
20	4.000000e-01	1.000000e-01	-6.576225e-08	
21	4.500000e-01	1.000000e-01	-3.189860e-07	
22	5.000000e-01	1.000000e-01	-1.423874e-06	
23	5.500000e-01	1.000000e-01	-5.700332e-06	
24	6.000000e-01	1.000000e-01	-2.028106e-05	
25	6.500000e-01	1.000000e-01	-6.115461e-05	
26	7.000000e-01	1.000000e-01	-1.401421e-04	
27	7.500000e-01	1.000000e-01	-2.381533e-04	
28	8.000000e-01	1.000000e-01	-3.288473e-04	
29	8.500000e-01	1.000000e-01	-4.039627e-04	
30	9.000000e-01	1.000000e-01	-4.656109e-04	
31	9.500000e-01	1.000000e-01	-5.175148e-04	
32	1.000000e+00	1.000000e-01	-5.624408e-04	
33	1.050000e+00	1.000000e-01	-6.021254e-04	
34	1.100000e+00	1.000000e-01	-6.376387e-04	
35	1.150000e+00	1.000000e-01	-6.696725e-04	
36	1.200000e+00	1.000000e-01	-6.987096e-04	
37	1.250000e+00	1.000000e-01	-7.251130e-04	
38	1.300000e+00	1.000000e-01	-7.491735e-04	
39	1.350000e+00	1.000000e-01	-7.711335e-04	
40	1.400000e+00	1.000000e-01	-7.912009e-04	
41	1.450000e+00	1.000000e-01	-8.095565e-04	
42	1.500000e+00	1.000000e-01	-8.263596e-04	
43	1.550000e+00	1.000000e-01	-8.417513e-04	
44	1.600000e+00	1.000000e-01	-8.558568e-04	
45	1.650000e+00	1.000000e-01	-8.687883e-04	
46	1.700000e+00	1.000000e-01	-8.806458e-04	
47	1.750000e+00	1.000000e-01	-8.915194e-04	
48	-6.000000e-01	1.000000e-01	-4.054465e-13	
49	-5.500000e-01	1.000000e-01	-4.054396e-13	
50	-5.000000e-01	1.000000e-01	-4.054396e-13	
51	-4.500000e-01	1.000000e-01	-4.054396e-13	
52	-4.000000e-01	1.000000e-01	-4.054396e-13	
53	-3.500000e-01	1.000000e-01	-4.054396e-13	
54	-3.000000e-01	1.000000e-01	-4.054396e-13	

Index   sweep           v(2)            vds#branch      
--------------------------------------------------------------------------------
55	-2.500000e-01	1.000000e-01	-4.054396e-13	
56	-2.000000e-01	1.000000e-01	-4.054604e-13	
57	-1.500000e-01	1.000000e-01	-4.055853e-13	
58	-1.000000e-01	1.000000e-01	-4.062792e-13	
59	-5.000000e-02	1.000000e-01	-4.102621e-13	
60	-6.938894e-17	1.000000e-01	-4.329315e-13	
61	5.000000e-02	1.000000e-01	-5.622031e-13	
62	1.000000e-01	1.000000e-01	-1.297268e-12	
63	1.500000e-01	1.000000e-01	-5.442216e-12	
64	2.000000e-01	1.000000e-01	-2.863318e-11	
65	2.500000e-01	1.000000e-01	-1.573011e-10	
66	3.000000e-01	1.000000e-01	-8.640301e-10	
67	3.500000e-01	1.000000e-01	-4.691842e-09	
68	4.000000e-01	1.000000e-01	-2.495426e-08	
69	4.500000e-01	1.000000e-01	-1.278660e-07	
70	5.000000e-01	1.000000e-01	-6.136249e-07	
71	5.500000e-01	1.000000e-01	-2.666592e-06	
72	6.000000e-01	1.000000e-01	-1.030169e-05	
73	6.500000e-01	1.000000e-01	-3.473496e-05	
74	7.000000e-01	1.000000e-01	-9.355602e-05	
75	7.500000e-01	1.000000e-01	-1.841544e-04	
76	8.000000e-01	1.000000e-01	-2.784997e-04	
77	8.500000e-01	1.000000e-01	-3.594809e-04	
78	9.000000e-01	1.000000e-01	-4.258014e-04	
79	9.500000e-01	1.000000e-01	-4.809817e-04	
80	1.000000e+00	1.000000e-01	-5.282512e-04	
81	1.050000e+00	1.000000e-01	-5.697269e-04	
82	1.100000e+00	1.000000e-01	-6.067033e-04	
83	1.150000e+00	1.000000e-01	-6.399926e-04	
84	1.200000e+00	1.000000e-01	-6.701409e-04	
85	1.250000e+00	1.000000e-01	-6.975465e-04	
86	1.300000e+00	1.000000e-01	-7.225210e-04	
87	1.350000e+00	1.000000e-01	-7.453207e-04	
88	1.400000e+00	1.000000e-01	-7.661634e-04	
89	1.450000e+00	1.000000e-01	-7.852375e-04	
90	1.500000e+00	1.000000e-01	-8.027090e-04	
91	1.550000e+00	1.000000e-01	-8.187240e-04	
92	1.600000e+00	1.000000e-01	-8.334128e-04	
93	1.650000e+00	1.000000e-01	-8.468909e-04	
94	1.700000e+00	1.000000e-01	-8.592625e-04	
95	1.750000e+00	1.000000e-01	-8.706202e-04	
96	-6.000000e-01	1.000000e-01	-7.054565e-13	
97	-5.500000e-01	1.000000e-01	-7.054565e-13	
98	-5.000000e-01	1.000000e-01	-7.054565e-13	
99	-4.500000e-01	1.000000e-01	-7.054426e-13	
100	-4.000000e-01	1.000000e-01	-7.054426e-13	
101	-3.500000e-01	1.000000e-01	-7.054426e-13	
102	-3.000000e-01	1.000000e-01	-7.054357e-13	
103	-2.500000e-01	1.000000e-01	-7.054426e-13	
104	-2.000000e-01	1.000000e-01	-7.054565e-13	
105	-1.500000e-01	1.000000e-01	-7.054912e-13	
106	-1.000000e-01	1.000000e-01	-7.057480e-13	
107	-5.000000e-02	1.000000e-01	-7.072398e-13	
108	-6.938894e-17	1.000000e-01	-7.158996e-13	
109	5.000000e-02	1.000000e-01	-7.661718e-13	
110	1.000000e-01	1.000000e-01	-1.057210e-12	
111	1.500000e-01	1.000000e-01	-2.728151e-12	
112	2.000000e-01	1.000000e-01	-1.224818e-11	

Index   sweep           v(2)            vds#branch      
--------------------------------------------------------------------------------
113	2.500000e-01	1.000000e-01	-6.605420e-11	
114	3.000000e-01	1.000000e-01	-3.674068e-10	
115	3.500000e-01	1.000000e-01	-2.035533e-09	
116	4.000000e-01	1.000000e-01	-1.110584e-08	
117	4.500000e-01	1.000000e-01	-5.890398e-08	
118	5.000000e-01	1.000000e-01	-2.967646e-07	
119	5.500000e-01	1.000000e-01	-1.372660e-06	
120	6.000000e-01	1.000000e-01	-5.663027e-06	
121	6.500000e-01	1.000000e-01	-2.058573e-05	
122	7.000000e-01	1.000000e-01	-6.244116e-05	
123	7.500000e-01	1.000000e-01	-1.411354e-04	
124	8.000000e-01	1.000000e-01	-2.354816e-04	
125	8.500000e-01	1.000000e-01	-3.211673e-04	
126	9.000000e-01	1.000000e-01	-3.919075e-04	
127	9.500000e-01	1.000000e-01	-4.502538e-04	
128	1.000000e+00	1.000000e-01	-4.997297e-04	
129	1.050000e+00	1.000000e-01	-5.428292e-04	
130	1.100000e+00	1.000000e-01	-5.810902e-04	
131	1.150000e+00	1.000000e-01	-6.154580e-04	
132	1.200000e+00	1.000000e-01	-6.465490e-04	
133	1.250000e+00	1.000000e-01	-6.747989e-04	
134	1.300000e+00	1.000000e-01	-7.005406e-04	
135	1.350000e+00	1.000000e-01	-7.240435e-04	
136	1.400000e+00	1.000000e-01	-7.455346e-04	
137	1.450000e+00	1.000000e-01	-7.652095e-04	
138	1.500000e+00	1.000000e-01	-7.832393e-04	
139	1.550000e+00	1.000000e-01	-7.997749e-04	
140	1.600000e+00	1.000000e-01	-8.149501e-04	
141	1.650000e+00	1.000000e-01	-8.288844e-04	
142	1.700000e+00	1.000000e-01	-8.416844e-04	
143	1.750000e+00	1.000000e-01	-8.534459e-04	
144	-6.000000e-01	1.000000e-01	-1.005453e-12	
145	-5.500000e-01	1.000000e-01	-1.005446e-12	
146	-5.000000e-01	1.000000e-01	-1.005446e-12	
147	-4.500000e-01	1.000000e-01	-1.005446e-12	
148	-4.000000e-01	1.000000e-01	-1.005446e-12	
149	-3.500000e-01	1.000000e-01	-1.005446e-12	
150	-3.000000e-01	1.000000e-01	-1.005446e-12	
151	-2.500000e-01	1.000000e-01	-1.005446e-12	
152	-2.000000e-01	1.000000e-01	-1.005446e-12	
153	-1.500000e-01	1.000000e-01	-1.005467e-12	
154	-1.000000e-01	1.000000e-01	-1.005585e-12	
155	-5.000000e-02	1.000000e-01	-1.006237e-12	
156	-6.938894e-17	1.000000e-01	-1.010143e-12	
157	5.000000e-02	1.000000e-01	-1.033090e-12	
158	1.000000e-01	1.000000e-01	-1.167726e-12	
159	1.500000e-01	1.000000e-01	-1.950766e-12	
160	2.000000e-01	1.000000e-01	-6.470928e-12	
161	2.500000e-01	1.000000e-01	-3.236013e-11	
162	3.000000e-01	1.000000e-01	-1.793786e-10	
163	3.500000e-01	1.000000e-01	-1.005629e-09	
164	4.000000e-01	1.000000e-01	-5.580879e-09	
165	4.500000e-01	1.000000e-01	-3.029342e-08	
166	5.000000e-01	1.000000e-01	-1.578260e-07	
167	5.500000e-01	1.000000e-01	-7.650222e-07	
168	6.000000e-01	1.000000e-01	-3.332557e-06	
169	6.500000e-01	1.000000e-01	-1.282303e-05	
170	7.000000e-01	1.000000e-01	-4.231397e-05	

Index   sweep           v(2)            vds#branch      
--------------------------------------------------------------------------------
171	7.500000e-01	1.000000e-01	-1.077518e-04	
172	8.000000e-01	1.000000e-01	-1.987390e-04	
173	8.500000e-01	1.000000e-01	-2.876519e-04	
174	9.000000e-01	1.000000e-01	-3.624241e-04	
175	9.500000e-01	1.000000e-01	-4.238140e-04	
176	1.000000e+00	1.000000e-01	-4.753905e-04	
177	1.050000e+00	1.000000e-01	-5.199910e-04	
178	1.100000e+00	1.000000e-01	-5.594043e-04	
179	1.150000e+00	1.000000e-01	-5.947186e-04	
180	1.200000e+00	1.000000e-01	-6.266256e-04	
181	1.250000e+00	1.000000e-01	-6.556009e-04	
182	1.300000e+00	1.000000e-01	-6.819988e-04	
183	1.350000e+00	1.000000e-01	-7.061022e-04	
184	1.400000e+00	1.000000e-01	-7.281463e-04	
185	1.450000e+00	1.000000e-01	-7.483329e-04	
186	1.500000e+00	1.000000e-01	-7.668381e-04	
187	1.550000e+00	1.000000e-01	-7.838166e-04	
188	1.600000e+00	1.000000e-01	-7.994059e-04	
189	1.650000e+00	1.000000e-01	-8.137282e-04	
190	1.700000e+00	1.000000e-01	-8.268926e-04	
191	1.750000e+00	1.000000e-01	-8.389970e-04	
192	-6.000000e-01	1.000000e-01	-1.305449e-12	
193	-5.500000e-01	1.000000e-01	-1.305442e-12	
194	-5.000000e-01	1.000000e-01	-1.305442e-12	
195	-4.500000e-01	1.000000e-01	-1.305442e-12	
196	-4.000000e-01	1.000000e-01	-1.305442e-12	
197	-3.500000e-01	1.000000e-01	-1.305442e-12	
198	-3.000000e-01	1.000000e-01	-1.305442e-12	
199	-2.500000e-01	1.000000e-01	-1.305442e-12	
200	-2.000000e-01	1.000000e-01	-1.305442e-12	
201	-1.500000e-01	1.000000e-01	-1.305449e-12	
202	-1.000000e-01	1.000000e-01	-1.305504e-12	
203	-5.000000e-02	1.000000e-01	-1.305851e-12	
204	-6.938894e-17	1.000000e-01	-1.307822e-12	
205	5.000000e-02	1.000000e-01	-1.319653e-12	
206	1.000000e-01	1.000000e-01	-1.389708e-12	
207	1.500000e-01	1.000000e-01	-1.801219e-12	
208	2.000000e-01	1.000000e-01	-4.200446e-12	
209	2.500000e-01	1.000000e-01	-1.808097e-11	
210	3.000000e-01	1.000000e-01	-9.772864e-11	
211	3.500000e-01	1.000000e-01	-5.504000e-10	
212	4.000000e-01	1.000000e-01	-3.090177e-09	
213	4.500000e-01	1.000000e-01	-1.704934e-08	
214	5.000000e-01	1.000000e-01	-9.096809e-08	
215	5.500000e-01	1.000000e-01	-4.566925e-07	
216	6.000000e-01	1.000000e-01	-2.080333e-06	
217	6.500000e-01	1.000000e-01	-8.388246e-06	
218	7.000000e-01	1.000000e-01	-2.941880e-05	
219	7.500000e-01	1.000000e-01	-8.251235e-05	
220	8.000000e-01	1.000000e-01	-1.676540e-04	
221	8.500000e-01	1.000000e-01	-2.581943e-04	
222	9.000000e-01	1.000000e-01	-3.364863e-04	
223	9.500000e-01	1.000000e-01	-4.007634e-04	
224	1.000000e+00	1.000000e-01	-4.543436e-04	
225	1.050000e+00	1.000000e-01	-5.003445e-04	
226	1.100000e+00	1.000000e-01	-5.408040e-04	
227	1.150000e+00	1.000000e-01	-5.769593e-04	
228	1.200000e+00	1.000000e-01	-6.095812e-04	

Index   sweep           v(2)            vds#branch      
--------------------------------------------------------------------------------
229	1.250000e+00	1.000000e-01	-6.391866e-04	
230	1.300000e+00	1.000000e-01	-6.661525e-04	
231	1.350000e+00	1.000000e-01	-6.907740e-04	
232	1.400000e+00	1.000000e-01	-7.132947e-04	
233	1.450000e+00	1.000000e-01	-7.339222e-04	
234	1.500000e+00	1.000000e-01	-7.528365e-04	
235	1.550000e+00	1.000000e-01	-7.701964e-04	
236	1.600000e+00	1.000000e-01	-7.861417e-04	
237	1.650000e+00	1.000000e-01	-8.007976e-04	
238	1.700000e+00	1.000000e-01	-8.142752e-04	
239	1.750000e+00	1.000000e-01	-8.266745e-04	
240	-6.000000e-01	1.000000e-01	-1.605452e-12	
241	-5.500000e-01	1.000000e-01	-1.605438e-12	
242	-5.000000e-01	1.000000e-01	-1.605438e-12	
243	-4.500000e-01	1.000000e-01	-1.605431e-12	
244	-4.000000e-01	1.000000e-01	-1.605431e-12	
245	-3.500000e-01	1.000000e-01	-1.605431e-12	
246	-3.000000e-01	1.000000e-01	-1.605431e-12	
247	-2.500000e-01	1.000000e-01	-1.605431e-12	
248	-2.000000e-01	1.000000e-01	-1.605431e-12	
249	-1.500000e-01	1.000000e-01	-1.605438e-12	
250	-1.000000e-01	1.000000e-01	-1.605473e-12	
251	-5.000000e-02	1.000000e-01	-1.605653e-12	
252	-6.938894e-17	1.000000e-01	-1.606770e-12	
253	5.000000e-02	1.000000e-01	-1.613487e-12	
254	1.000000e-01	1.000000e-01	-1.653525e-12	
255	1.500000e-01	1.000000e-01	-1.890543e-12	
256	2.000000e-01	1.000000e-01	-3.283353e-12	
257	2.500000e-01	1.000000e-01	-1.140535e-11	
258	3.000000e-01	1.000000e-01	-5.838956e-11	
259	3.500000e-01	1.000000e-01	-3.277393e-10	
260	4.000000e-01	1.000000e-01	-1.854038e-09	
261	4.500000e-01	1.000000e-01	-1.035120e-08	
262	5.000000e-01	1.000000e-01	-5.620143e-08	
263	5.500000e-01	1.000000e-01	-2.897167e-07	
264	6.000000e-01	1.000000e-01	-1.368444e-06	
265	6.500000e-01	1.000000e-01	-5.742354e-06	
266	7.000000e-01	1.000000e-01	-2.109407e-05	
267	7.500000e-01	1.000000e-01	-6.380494e-05	
268	8.000000e-01	1.000000e-01	-1.417049e-04	
269	8.500000e-01	1.000000e-01	-2.323490e-04	
270	9.000000e-01	1.000000e-01	-3.135605e-04	
271	9.500000e-01	1.000000e-01	-3.805281e-04	
272	1.000000e+00	1.000000e-01	-4.360097e-04	
273	1.050000e+00	1.000000e-01	-4.833206e-04	
274	1.100000e+00	1.000000e-01	-5.247358e-04	
275	1.150000e+00	1.000000e-01	-5.616433e-04	
276	1.200000e+00	1.000000e-01	-5.948956e-04	
277	1.250000e+00	1.000000e-01	-6.250520e-04	
278	1.300000e+00	1.000000e-01	-6.525118e-04	
279	1.350000e+00	1.000000e-01	-6.775830e-04	
280	1.400000e+00	1.000000e-01	-7.005168e-04	
281	1.450000e+00	1.000000e-01	-7.215260e-04	
282	1.500000e+00	1.000000e-01	-7.407945e-04	
283	1.550000e+00	1.000000e-01	-7.584843e-04	
284	1.600000e+00	1.000000e-01	-7.747377e-04	
285	1.650000e+00	1.000000e-01	-7.896821e-04	
286	1.700000e+00	1.000000e-01	-8.034305e-04	

Index   sweep           v(2)            vds#branch      
--------------------------------------------------------------------------------
287	1.750000e+00	1.000000e-01	-8.160846e-04	

CPU time since last call: 0.520 seconds.

Total CPU time: 0.520 seconds.

Current dynamic memory usage = 196608,
Dynamic memory limit = -18074808.

