
Circuit: check scoping of nested .model definitions

Doing analysis at TEMP = 27.000000 and TNOM = 27.000000


No. of Data Rows : 1
INFO: 0 of 7 tests failed
ngspice-25 done
