
Circuit: vbic diffamp test

Doing analysis at TEMP = 27.000000 and TNOM = 27.000000



No. of Data Rows : 101


No. of Data Rows : 1

Initial Transient Solution
--------------------------

Node                                   Voltage
----                                   -------
vcc                                        3.3
v2_p                                   1.64995
r3_n                                   1.64995
q3_c                                   1.57545
q4_c                                   1.57545
q1_e                                   1.01105
i1_n                                  0.658516
q9_b                                   1.94325
q5_b                                    2.6206
q5_c                                    2.6147
q6_c                                    2.6147
e1_p                               2.40286e-11
q8_b                                   2.62162
e1#branch                         -2.40286e-20
v2#branch                         -5.40529e-08
v1#branch                          -0.00174308



No. of Data Rows : 111

	Node                                  Voltage
	----                                  -------
	----	-------
	q10#collCI                      1.010381e+00
	q10#substrate                   2.021916e-11
	q11#collCI                      6.578599e-01
	q11#substrate                   1.318851e-11
	q12#collCI                      1.942528e+00
	q12#substrate                   1.943144e-11
	q13#collCI                      2.619850e+00
	q13#substrate                   2.620494e-11
	q1#collCI                       2.614371e+00
	q1#substrate                    5.229312e-11
	q2#collCI                       2.614371e+00
	q2#substrate                    5.229312e-11
	q3#collCI                       1.576554e+00
	q3#substrate                    1.575451e+00
	q4#collCI                       1.576554e+00
	q4#substrate                    1.575451e+00
	q5#collCI                       2.616153e+00
	q5#substrate                    2.614704e+00
	q6#collCI                       2.616153e+00
	q6#substrate                    2.614704e+00
	q7#collCI                       2.622050e+00
	q7#substrate                    2.620602e+00
	q8#collCI                       2.623017e+00
	q8#substrate                    2.621623e+00
	q9#collCI                       1.944640e+00
	q9#substrate                    1.943247e+00
	q8_b                            2.621623e+00
	e1_p                            2.402856e-11
	q6_c                            2.614704e+00
	q5_c                            2.614704e+00
	q5_b                            2.620602e+00
	q9_b                            1.943247e+00
	i1_n                            6.585156e-01
	q1_e                            1.011054e+00
	q4_c                            1.575451e+00
	q3_c                            1.575451e+00
	r3_n                            1.649946e+00
	v2_p                            1.649946e+00
	vcc                             3.300000e+00

	Source	Current
	------	-------

	v1#branch                       -1.74308e-03
	v2#branch                       -5.40529e-08
	e1#branch                       -2.40286e-20

 Resistor models (Simple linear resistor)
      model                     R

        rsh                     0
     narrow                     0
      short                     0
        tc1                     0
        tc2                     0
       defw                 1e-05
         kf                     0
         af                     0

 VBIC models (Vertical Bipolar Inter-Company Model)
      model                    p1                    n1

       type                   pnp                   npn
       tnom                    27                    27
        rcx                    10                    10
        rci                    60                    60
         vo                     2                     2
       gamm                 2e-11                 2e-11
       hrcf                     2                     2
        rbx                    10                    10
        rbi                    40                    40
         re                     2                     2
         rs                    20                    20
        rbp                    40                    40
         is                 1e-16                 1e-16
         nf                     1                     1
         nr                     1                     1
         fc                   0.9                   0.9
       cbeo                     0                     0
        cje                 1e-13                 1e-13
         pe                  0.75                  0.75
         me                  0.33                  0.33
        aje                  -0.5                  -0.5
       cbco                     0                     0
        cjc                 2e-14                 2e-14
        qco                 1e-12                 1e-12
       cjep                 1e-13                 1e-13
         pc                  0.75                  0.75
         mc                  0.33                  0.33
        ajc                  -0.5                  -0.5
       cjcp                 4e-13                 4e-13
         ps                  0.75                  0.75
         ms                  0.33                  0.33
        ajs                  -0.5                  -0.5
       ibei                 1e-18                 1e-18
        wbe                     1                     1
        nei                     1                     1
       iben                 5e-15                 5e-15
        nen                     2                     2
       ibci                 2e-17                 2e-17
        nci                     1                     1
       ibcn                 5e-15                 5e-15
        ncn                     2                     2
       avc1                     2                     2
       avc2                    15                    15
        isp                 1e-15                 1e-15
        wsp                     1                     1
        nfp                     1                     1
      ibeip                     0                     0
      ibenp                     0                     0
      ibcip                     0                     0
       ncip                     1                     1
      ibcnp                     0                     0
       ncnp                     2                     2
        vef                    10                    10
        ver                     4                     4
        ikf                 0.002                 0.002
        ikr                0.0002                0.0002
        ikp                0.0002                0.0002
         tf                 1e-11                 1e-11
        qtf                     0                     0
        xtf                    20                    20
        vtf                     0                     0
        itf                  0.08                  0.08
         tr                 1e-10                 1e-10
         td                 2e-11                 2e-11
        kfn                     0                     0
        afn                     1                     1
        bfn                     1                     1
        xre                     0                     0
        xrb                     0                     0
       xrbi                     0                     0
        xrc                     0                     0
       xrci                     0                     0
        xrs                     0                     0
        xvo                     0                     0
         ea                  1.12                  1.12
       eaie                  1.12                  1.12
       eaic                  1.12                  1.12
       eais                  1.12                  1.12
       eane                  1.12                  1.12
       eanc                  1.12                  1.12
       eans                  1.12                  1.12
        xis                     3                     3
        xii                     3                     3
        xin                     3                     3
        tnf                     0                     0
       tavc                     0                     0
        rth                   300                   300
        cth                     0                     0
        vrt                     0                     0
        art                   0.1                   0.1
       ccso                     0                     0
        qbm                     0                     0
        nkf                   0.5                   0.5
       xikf                     0                     0
       xrcx                     0                     0
       xrbx                     0                     0
       xrbp                     0                     0
       isrr                     1                     1
       xisr                     0                     0
       dear                     0                     0
        eap                  1.12                  1.12
       vbbe                     0                     0
       nbbe                     1                     1
       ibbe                 1e-06                 1e-06
     tvbbe1                     0                     0
     tvbbe2                     0                     0
      tnbbe                     0                     0
       ebbe                     0                     0
      dtemp                     0                     0
       vers                   1.2                   1.2
       vref                     0                     0

 Isource: Independent current source
     device                    i1
         dc                 1e-05
      acmag                     0
          v              -2.64142
          p           2.64142e-05

 Resistor: Simple linear resistor
     device                    rh                    r4                    r3
      model                     R                     R                     R
 resistance                 1e+09                  1000                  1000
         ac                 1e+09                  1000                  1000
      dtemp                     0                     0                     0
      noisy                     1                     1                     1
          i           9.48543e-11            0.00164991            0.00165009
          p           8.99735e-12            0.00272221            0.00272279

 Resistor: Simple linear resistor
     device                    r2                    r1
      model                     R                     R
 resistance                100000                100000
         ac                100000                100000
      dtemp                     0                     0
      noisy                     1                     1
          i           1.52842e-05           1.62327e-05
          p           2.33606e-05           2.63501e-05

 VBIC: Vertical Bipolar Inter-Company Model
     device                    q9                    q8                    q7
      model                    p1                    p1                    p1
        vbe              0.678348              0.678348              0.679406
        vbc            0.00138433            0.00138433            0.00144097
         ic           1.99274e-05           1.99274e-05           2.07423e-05
         ib           2.49337e-07           2.49337e-07           2.58995e-07
         ie          -2.01767e-05          -2.01767e-05          -2.10013e-05
         is          -1.72796e-12          -1.72801e-12          -5.37674e-12
         gm           0.000755557           0.000755557           0.000786168
         go          -1.60559e-06          -1.60559e-06          -1.66941e-06
        gpi           5.55436e-05           5.55436e-05           5.62072e-05
        gmu           4.10087e-06           4.10087e-06           4.10097e-06
         gx             0.0307981             0.0307981             0.0308228
        cbe           2.24502e-13           2.24502e-13           2.25802e-13
       cbex                     0                     0                     0
        cbc           2.00122e-14           2.00122e-14           2.00127e-14
       cbcx           3.89454e-22           3.89454e-22           3.89571e-22
       cbep           1.00009e-13           1.00009e-13           1.00009e-13
       cbcp           4.00035e-13           4.00035e-13           4.00037e-13
          p           1.36592e-05           1.36592e-05           1.42385e-05

 VBIC: Vertical Bipolar Inter-Company Model
     device                    q6                    q5                    q4
      model                    p1                    p1                    p1
        vbe              0.679406              0.679406              0.671179
        vbc            -0.0046728           -0.00417458             -0.413711
         ic           2.07505e-05           2.07541e-05            1.5604e-05
         ib           2.70491e-07           2.45601e-07           5.94526e-07
         ie          -2.10114e-05          -2.10109e-05          -1.58787e-05
         is          -1.20867e-11          -4.21673e-12           1.26423e-10
         gm           0.000786538           0.000786519           0.000594898
         go          -1.66655e-06           -1.6668e-06          -1.13386e-06
        gpi           5.62078e-05            5.6208e-05           5.15524e-05
        gmu           4.08998e-06           4.09087e-06           3.54571e-06
         gx             0.0308077             0.0308089              0.029688
        cbe           2.25806e-13           2.25806e-13           2.16268e-13
       cbex                     0                     0                     0
        cbc            1.9959e-14           1.99634e-14            1.7301e-14
       cbcx           3.07555e-22           3.13534e-22           4.21718e-29
       cbep           9.97413e-14            9.9763e-14            8.6482e-14
       cbcp           4.00036e-13           4.00037e-13           4.00025e-13
          p           1.43722e-05           1.43615e-05           1.71659e-05

 VBIC: Vertical Bipolar Inter-Company Model
     device                    q3                    q2                    q1
      model                    p1                    n1                    n1
        vbe              0.671689              0.639269              0.639262
        vbc             -0.318814             -0.964177             -0.964683
         ic           1.59257e-05           4.83217e-06           4.81776e-06
         ib          -1.98661e-07          -1.28929e-08           1.90204e-07
         ie          -1.60341e-05           -4.8265e-06          -4.94959e-06
         is          -1.85939e-10            2.2784e-08          -2.81806e-08
         gm           0.000602367           0.000184325           0.000184281
         go          -1.17213e-06          -3.27084e-07          -3.26987e-07
        gpi           5.18041e-05             4.102e-05           4.10185e-05
        gmu           3.64642e-06           3.12218e-06           3.12188e-06
         gx             0.0299053             0.0280441              0.028043
        cbe           2.16794e-13           1.89845e-13            1.8984e-13
       cbex                     0                     0                     0
        cbc           1.77935e-14           1.52252e-14           1.52237e-14
       cbcx           1.65231e-27           2.47219e-38           2.42433e-38
       cbep           8.89419e-14           7.61216e-14           7.61142e-14
       cbcp           4.00031e-13           2.43754e-13           2.43742e-13
          p           1.58473e-05           7.80877e-06           7.90711e-06

 VBIC: Vertical Bipolar Inter-Company Model
     device                   q13                   q12                   q11
      model                    n1                    n1                    n1
        vbe              0.658555              0.658555              0.658557
        vbc              -1.96121              -1.28391           0.000652342
         ic           2.15197e-05            2.0581e-05           9.39039e-06
         ib           1.80371e-07           2.27861e-07           1.16442e-07
         ie          -2.16994e-05          -2.08068e-05          -9.50683e-06
         is          -1.56164e-09          -6.32007e-09           8.49745e-10
         gm            0.00081573           0.000782531           0.000357808
         go          -1.31356e-06          -1.32719e-06          -7.69309e-07
        gpi           9.26402e-05           9.25721e-05           4.62181e-05
        gmu           5.48806e-06           5.92463e-06           4.09954e-06
         gx             0.0532015             0.0555096              0.030407
        cbe           4.08671e-13           4.08339e-13           2.03836e-13
       cbex                     0                     0                     0
        cbc            2.6175e-14           2.87794e-14           2.00057e-14
       cbcx           8.85305e-55           2.08978e-43           3.87955e-22
       cbep           1.30865e-13           1.43882e-13           1.00004e-13
       cbcp           4.87219e-13           5.24659e-13           3.24894e-13
          p           5.64991e-05           4.01387e-05           6.25522e-06

 VBIC: Vertical Bipolar Inter-Company Model
     device                   q10
      model                    n1
        vbe              0.658557
        vbc              -0.35138
         ic           9.65603e-06
         ib           8.40913e-08
         ie          -9.76707e-06
         is           9.31075e-08
         gm           0.000367535
         go          -7.15416e-07
        gpi            4.6238e-05
        gmu           3.61044e-06
         gx              0.029587
        cbe           2.03933e-13
       cbex                     0
        cbc           1.76182e-14
       cbcx           4.75995e-28
       cbep           8.80758e-14
       cbcp           3.01834e-13
          p           9.91919e-06

 VCVS: Voltage controlled voltage source
     device                    e1
          i          -9.48543e-11
          v             0.0948543
          p          -8.99735e-12

 Vsource: Independent voltage source
     device                    v2                    v1
         dc                     0                   3.3
      acmag                     1                     0
          i          -1.90204e-07           -0.00174329
          p                     0            0.00575285

                               vbic diffamp test
                               AC Analysis  Sun Mar  8 16:34:50  2009
--------------------------------------------------------------------------------
Index   frequency       v(e1_p)                         
--------------------------------------------------------------------------------
0	1.000000e+05	-1.78122e+01,	1.371678e-01	
1	1.096478e+05	-1.78120e+01,	1.504001e-01	
2	1.202264e+05	-1.78117e+01,	1.649086e-01	
3	1.318257e+05	-1.78115e+01,	1.808163e-01	
4	1.445440e+05	-1.78111e+01,	1.982580e-01	
5	1.584893e+05	-1.78108e+01,	2.173814e-01	
6	1.737801e+05	-1.78103e+01,	2.383485e-01	
7	1.905461e+05	-1.78097e+01,	2.613367e-01	
8	2.089296e+05	-1.78090e+01,	2.865404e-01	
9	2.290868e+05	-1.78082e+01,	3.141728e-01	
10	2.511886e+05	-1.78072e+01,	3.444670e-01	
11	2.754229e+05	-1.78060e+01,	3.776787e-01	
12	3.019952e+05	-1.78046e+01,	4.140876e-01	
13	3.311311e+05	-1.78029e+01,	4.540001e-01	
14	3.630781e+05	-1.78008e+01,	4.977512e-01	
15	3.981072e+05	-1.77984e+01,	5.457073e-01	
16	4.365158e+05	-1.77954e+01,	5.982693e-01	
17	4.786301e+05	-1.77918e+01,	6.558746e-01	
18	5.248075e+05	-1.77875e+01,	7.190013e-01	
19	5.754399e+05	-1.77824e+01,	7.881703e-01	
20	6.309573e+05	-1.77761e+01,	8.639495e-01	
21	6.918310e+05	-1.77687e+01,	9.469565e-01	
22	7.585776e+05	-1.77597e+01,	1.037862e+00	
23	8.317638e+05	-1.77490e+01,	1.137395e+00	
24	9.120108e+05	-1.77361e+01,	1.246340e+00	
25	1.000000e+06	-1.77205e+01,	1.365546e+00	
26	1.096478e+06	-1.77019e+01,	1.495925e+00	
27	1.202264e+06	-1.76796e+01,	1.638451e+00	
28	1.318257e+06	-1.76528e+01,	1.794162e+00	
29	1.445440e+06	-1.76207e+01,	1.964152e+00	
30	1.584893e+06	-1.75822e+01,	2.149567e+00	
31	1.737801e+06	-1.75361e+01,	2.351593e+00	
32	1.905461e+06	-1.74810e+01,	2.571439e+00	
33	2.089296e+06	-1.74151e+01,	2.810312e+00	
34	2.290868e+06	-1.73365e+01,	3.069385e+00	
35	2.511886e+06	-1.72427e+01,	3.349748e+00	
36	2.754229e+06	-1.71311e+01,	3.652353e+00	
37	3.019952e+06	-1.69986e+01,	3.977932e+00	
38	3.311311e+06	-1.68415e+01,	4.326904e+00	
39	3.630781e+06	-1.66560e+01,	4.699252e+00	
40	3.981072e+06	-1.64374e+01,	5.094380e+00	
41	4.365158e+06	-1.61811e+01,	5.510949e+00	
42	4.786301e+06	-1.58817e+01,	5.946689e+00	
43	5.248075e+06	-1.55339e+01,	6.398204e+00	
44	5.754399e+06	-1.51324e+01,	6.860785e+00	
45	6.309573e+06	-1.46722e+01,	7.328253e+00	
46	6.918310e+06	-1.41491e+01,	7.792855e+00	
47	7.585776e+06	-1.35598e+01,	8.245277e+00	
48	8.317638e+06	-1.29031e+01,	8.674784e+00	
49	9.120108e+06	-1.21796e+01,	9.069546e+00	
50	1.000000e+07	-1.13927e+01,	9.417159e+00	
51	1.096478e+07	-1.05489e+01,	9.705355e+00	
52	1.202264e+07	-9.65757e+00,	9.922849e+00	
53	1.318257e+07	-8.73081e+00,	1.006023e+01	
54	1.445440e+07	-7.78311e+00,	1.011081e+01	

Index   frequency       v(e1_p)                         
--------------------------------------------------------------------------------
55	1.584893e+07	-6.83037e+00,	1.007122e+01	
56	1.737801e+07	-5.88892e+00,	9.941753e+00	
57	1.905461e+07	-4.97446e+00,	9.726298e+00	
58	2.089296e+07	-4.10105e+00,	9.431969e+00	
59	2.290868e+07	-3.28044e+00,	9.068402e+00	
60	2.511886e+07	-2.52152e+00,	8.646911e+00	
61	2.754229e+07	-1.83024e+00,	8.179607e+00	
62	3.019952e+07	-1.20972e+00,	7.678586e+00	
63	3.311311e+07	-6.60639e-01,	7.155280e+00	
64	3.630781e+07	-1.81651e-01,	6.620009e+00	
65	3.981072e+07	2.300529e-01,	6.081721e+00	
66	4.365158e+07	5.782722e-01,	5.547913e+00	
67	4.786301e+07	8.673718e-01,	5.024685e+00	
68	5.248075e+07	1.101946e+00,	4.516879e+00	
69	5.754399e+07	1.286581e+00,	4.028281e+00	
70	6.309573e+07	1.425708e+00,	3.561824e+00	
71	6.918310e+07	1.523541e+00,	3.119797e+00	
72	7.585776e+07	1.584073e+00,	2.704012e+00	
73	8.317638e+07	1.611124e+00,	2.315936e+00	
74	9.120108e+07	1.608412e+00,	1.956766e+00	
75	1.000000e+08	1.579626e+00,	1.627456e+00	
76	1.096478e+08	1.528492e+00,	1.328694e+00	
77	1.202264e+08	1.458802e+00,	1.060850e+00	
78	1.318257e+08	1.374397e+00,	8.238968e-01	
79	1.445440e+08	1.279113e+00,	6.173482e-01	
80	1.584893e+08	1.176680e+00,	4.402122e-01	
81	1.737801e+08	1.070605e+00,	2.909907e-01	
82	1.905461e+08	9.640486e-01,	1.677243e-01	
83	2.089296e+08	8.597201e-01,	6.808034e-02	
84	2.290868e+08	7.598105e-01,	-1.05282e-02	
85	2.511886e+08	6.659643e-01,	-7.08102e-02	
86	2.754229e+08	5.792953e-01,	-1.15469e-01	
87	3.019952e+08	5.004359e-01,	-1.47091e-01	
88	3.311311e+08	4.296099e-01,	-1.68064e-01	
89	3.630781e+08	3.667162e-01,	-1.80521e-01	
90	3.981072e+08	3.114135e-01,	-1.86319e-01	
91	4.365158e+08	2.631972e-01,	-1.87030e-01	
92	4.786301e+08	2.214656e-01,	-1.83958e-01	
93	5.248075e+08	1.855722e-01,	-1.78160e-01	
94	5.754399e+08	1.548653e-01,	-1.70480e-01	
95	6.309573e+08	1.287150e-01,	-1.61578e-01	
96	6.918310e+08	1.065318e-01,	-1.51960e-01	
97	7.585776e+08	8.777648e-02,	-1.42007e-01	
98	8.317638e+08	7.196465e-02,	-1.32001e-01	
99	9.120108e+08	5.866760e-02,	-1.22144e-01	
100	1.000000e+09	4.751015e-02,	-1.12574e-01	

                               vbic diffamp test
                               Transient Analysis  Sun Mar  8 16:34:50  2009
--------------------------------------------------------------------------------
Index   time            v(e1_p)         
--------------------------------------------------------------------------------
0	0.000000e+00	7.755352e-12	
1	1.000000e-11	1.376987e-07	
2	2.000000e-11	2.571225e-07	
3	4.000000e-11	5.104402e-07	
4	8.000000e-11	1.342846e-06	
5	1.600000e-10	4.686878e-06	
6	3.200000e-10	1.590891e-05	
7	6.400000e-10	4.054170e-05	
8	1.280000e-09	6.767806e-06	
9	2.560000e-09	-7.88609e-04	
10	5.120000e-09	-6.13183e-03	
11	1.024000e-08	-2.93215e-02	
12	2.024000e-08	-9.24328e-02	
13	3.024000e-08	-1.40406e-01	
14	4.024000e-08	-1.42217e-01	
15	5.024000e-08	-9.31277e-02	
16	6.024000e-08	-1.00587e-02	
17	7.024000e-08	7.634007e-02	
18	8.024000e-08	1.336656e-01	
19	9.024000e-08	1.404278e-01	
20	1.002400e-07	9.323793e-02	
21	1.102400e-07	9.243606e-03	
22	1.202400e-07	-7.85336e-02	
23	1.302400e-07	-1.35431e-01	
24	1.402400e-07	-1.40413e-01	
25	1.502400e-07	-9.24959e-02	
26	1.602400e-07	-9.82028e-03	
27	1.702400e-07	7.642091e-02	
28	1.802400e-07	1.336985e-01	
29	1.902400e-07	1.404375e-01	
30	2.002400e-07	9.324286e-02	
31	2.102400e-07	9.244434e-03	
32	2.202400e-07	-7.85326e-02	
33	2.302400e-07	-1.35432e-01	
34	2.402400e-07	-1.40413e-01	
35	2.502400e-07	-9.24960e-02	
36	2.602400e-07	-9.82016e-03	
37	2.702400e-07	7.642091e-02	
38	2.802400e-07	1.336985e-01	
39	2.902400e-07	1.404375e-01	
40	3.002400e-07	9.324281e-02	
41	3.102400e-07	9.244454e-03	
42	3.202400e-07	-7.85325e-02	
43	3.302400e-07	-1.35432e-01	
44	3.402400e-07	-1.40413e-01	
45	3.502400e-07	-9.24961e-02	
46	3.602400e-07	-9.82014e-03	
47	3.702400e-07	7.642092e-02	
48	3.802400e-07	1.336985e-01	
49	3.902400e-07	1.404376e-01	
50	4.002400e-07	9.324278e-02	
51	4.102400e-07	9.244469e-03	
52	4.202400e-07	-7.85325e-02	
53	4.302400e-07	-1.35432e-01	
54	4.402400e-07	-1.40413e-01	

Index   time            v(e1_p)         
--------------------------------------------------------------------------------
55	4.502400e-07	-9.24961e-02	
56	4.602400e-07	-9.82013e-03	
57	4.702400e-07	7.642092e-02	
58	4.802400e-07	1.336985e-01	
59	4.902400e-07	1.404376e-01	
60	5.002400e-07	9.324277e-02	
61	5.102400e-07	9.244477e-03	
62	5.202400e-07	-7.85325e-02	
63	5.302400e-07	-1.35432e-01	
64	5.402400e-07	-1.40413e-01	
65	5.502400e-07	-9.24961e-02	
66	5.602400e-07	-9.82013e-03	
67	5.702400e-07	7.642092e-02	
68	5.802400e-07	1.336985e-01	
69	5.902400e-07	1.404376e-01	
70	6.002400e-07	9.324276e-02	
71	6.102400e-07	9.244480e-03	
72	6.202400e-07	-7.85325e-02	
73	6.302400e-07	-1.35432e-01	
74	6.402400e-07	-1.40413e-01	
75	6.502400e-07	-9.24961e-02	
76	6.602400e-07	-9.82012e-03	
77	6.702400e-07	7.642093e-02	
78	6.802400e-07	1.336984e-01	
79	6.902400e-07	1.404376e-01	
80	7.002400e-07	9.324276e-02	
81	7.102400e-07	9.244482e-03	
82	7.202400e-07	-7.85325e-02	
83	7.302400e-07	-1.35432e-01	
84	7.402400e-07	-1.40413e-01	
85	7.502400e-07	-9.24961e-02	
86	7.602400e-07	-9.82012e-03	
87	7.702400e-07	7.642093e-02	
88	7.802400e-07	1.336984e-01	
89	7.902400e-07	1.404376e-01	
90	8.002400e-07	9.324275e-02	
91	8.102400e-07	9.244483e-03	
92	8.202400e-07	-7.85325e-02	
93	8.302400e-07	-1.35432e-01	
94	8.402400e-07	-1.40413e-01	
95	8.502400e-07	-9.24961e-02	
96	8.602400e-07	-9.82012e-03	
97	8.702400e-07	7.642093e-02	
98	8.802400e-07	1.336984e-01	
99	8.902400e-07	1.404376e-01	
100	9.002400e-07	9.324275e-02	
101	9.102400e-07	9.244483e-03	
102	9.202400e-07	-7.85325e-02	
103	9.302400e-07	-1.35432e-01	
104	9.402400e-07	-1.40413e-01	
105	9.502400e-07	-9.24961e-02	
106	9.602400e-07	-9.82012e-03	
107	9.702400e-07	7.642093e-02	
108	9.802400e-07	1.336984e-01	
109	9.902400e-07	1.404376e-01	
110	1.000000e-06	9.485434e-02	


Total elapsed time: 0.180 seconds.

Total DRAM available = 255.484375 MB.
DRAM currently available = 133.890625 MB.
Total ngspice program size = 14.214844 MB.

