 Reference value :  2.74000e+00
No. of Data Rows : 1806

Circuit: *model = BSIMSOI (FD)

Doing analysis at TEMP = 300.150000 and TNOM = 300.150000
Warning: Pd = 0 is less than W.
Warning: Ps = 0 is less than W.
                             *model = BSIMSOI (FD)
--------------------------------------------------------------------------------
Index   v-sweep         v(g)            vs#branch       
--------------------------------------------------------------------------------
0	0.000000e+00	5.000000e-01	-1.250000e-19	
1	1.000000e-02	5.000000e-01	3.403448e-06	
2	2.000000e-02	5.000000e-01	6.447166e-06	
3	3.000000e-02	5.000000e-01	9.138041e-06	
4	4.000000e-02	5.000000e-01	1.148481e-05	
5	5.000000e-02	5.000000e-01	1.349892e-05	
6	6.000000e-02	5.000000e-01	1.519577e-05	
7	7.000000e-02	5.000000e-01	1.659602e-05	
8	8.000000e-02	5.000000e-01	1.772678e-05	
9	9.000000e-02	5.000000e-01	1.862188e-05	
10	1.000000e-01	5.000000e-01	1.932024e-05	
11	1.100000e-01	5.000000e-01	1.986244e-05	
12	1.200000e-01	5.000000e-01	2.028646e-05	
13	1.300000e-01	5.000000e-01	2.062437e-05	
14	1.400000e-01	5.000000e-01	2.090110e-05	
15	1.500000e-01	5.000000e-01	2.115380e-05	
16	1.600000e-01	5.000000e-01	2.135170e-05	
17	1.700000e-01	5.000000e-01	2.152996e-05	
18	1.800000e-01	5.000000e-01	2.169408e-05	
19	1.900000e-01	5.000000e-01	2.184783e-05	
20	2.000000e-01	5.000000e-01	2.199384e-05	
21	2.100000e-01	5.000000e-01	2.213397e-05	
22	2.200000e-01	5.000000e-01	2.226958e-05	
23	2.300000e-01	5.000000e-01	2.240167e-05	
24	2.400000e-01	5.000000e-01	2.253096e-05	
25	2.500000e-01	5.000000e-01	2.265802e-05	
26	2.600000e-01	5.000000e-01	2.278327e-05	
27	2.700000e-01	5.000000e-01	2.290706e-05	
28	2.800000e-01	5.000000e-01	2.302964e-05	
29	2.900000e-01	5.000000e-01	2.315121e-05	
30	3.000000e-01	5.000000e-01	2.327195e-05	
31	3.100000e-01	5.000000e-01	2.339200e-05	
32	3.200000e-01	5.000000e-01	2.351145e-05	
33	3.300000e-01	5.000000e-01	2.363042e-05	
34	3.400000e-01	5.000000e-01	2.374896e-05	
35	3.500000e-01	5.000000e-01	2.386715e-05	
36	3.600000e-01	5.000000e-01	2.398503e-05	
37	3.700000e-01	5.000000e-01	2.410267e-05	
38	3.800000e-01	5.000000e-01	2.422008e-05	
39	3.900000e-01	5.000000e-01	2.433732e-05	
40	4.000000e-01	5.000000e-01	2.445440e-05	
41	4.100000e-01	5.000000e-01	2.457135e-05	
42	4.200000e-01	5.000000e-01	2.468820e-05	
43	4.300000e-01	5.000000e-01	2.480496e-05	
44	4.400000e-01	5.000000e-01	2.492165e-05	
45	4.500000e-01	5.000000e-01	2.503828e-05	
46	4.600000e-01	5.000000e-01	2.515488e-05	
47	4.700000e-01	5.000000e-01	2.527144e-05	
48	4.800000e-01	5.000000e-01	2.538799e-05	
49	4.900000e-01	5.000000e-01	2.550453e-05	
50	5.000000e-01	5.000000e-01	2.562106e-05	
51	5.100000e-01	5.000000e-01	2.573761e-05	
52	5.200000e-01	5.000000e-01	2.585416e-05	
53	5.300000e-01	5.000000e-01	2.597074e-05	
54	5.400000e-01	5.000000e-01	2.608734e-05	

Index   v-sweep         v(g)            vs#branch       
--------------------------------------------------------------------------------
55	5.500000e-01	5.000000e-01	2.620398e-05	
56	5.600000e-01	5.000000e-01	2.632064e-05	
57	5.700000e-01	5.000000e-01	2.643735e-05	
58	5.800000e-01	5.000000e-01	2.655410e-05	
59	5.900000e-01	5.000000e-01	2.667090e-05	
60	6.000000e-01	5.000000e-01	2.678775e-05	
61	6.100000e-01	5.000000e-01	2.690465e-05	
62	6.200000e-01	5.000000e-01	2.702161e-05	
63	6.300000e-01	5.000000e-01	2.713863e-05	
64	6.400000e-01	5.000000e-01	2.725571e-05	
65	6.500000e-01	5.000000e-01	2.737286e-05	
66	6.600000e-01	5.000000e-01	2.749007e-05	
67	6.700000e-01	5.000000e-01	2.760734e-05	
68	6.800000e-01	5.000000e-01	2.772469e-05	
69	6.900000e-01	5.000000e-01	2.784211e-05	
70	7.000000e-01	5.000000e-01	2.795960e-05	
71	7.100000e-01	5.000000e-01	2.807716e-05	
72	7.200000e-01	5.000000e-01	2.819481e-05	
73	7.300000e-01	5.000000e-01	2.831252e-05	
74	7.400000e-01	5.000000e-01	2.843032e-05	
75	7.500000e-01	5.000000e-01	2.854819e-05	
76	7.600000e-01	5.000000e-01	2.866615e-05	
77	7.700000e-01	5.000000e-01	2.878419e-05	
78	7.800000e-01	5.000000e-01	2.890231e-05	
79	7.900000e-01	5.000000e-01	2.902051e-05	
80	8.000000e-01	5.000000e-01	2.913880e-05	
81	8.100000e-01	5.000000e-01	2.925717e-05	
82	8.200000e-01	5.000000e-01	2.937563e-05	
83	8.300000e-01	5.000000e-01	2.949417e-05	
84	8.400000e-01	5.000000e-01	2.961280e-05	
85	8.500000e-01	5.000000e-01	2.973152e-05	
86	8.600000e-01	5.000000e-01	2.985033e-05	
87	8.700000e-01	5.000000e-01	2.996923e-05	
88	8.800000e-01	5.000000e-01	3.008821e-05	
89	8.900000e-01	5.000000e-01	3.020729e-05	
90	9.000000e-01	5.000000e-01	3.032645e-05	
91	9.100000e-01	5.000000e-01	3.044571e-05	
92	9.200000e-01	5.000000e-01	3.056506e-05	
93	9.300000e-01	5.000000e-01	3.068450e-05	
94	9.400000e-01	5.000000e-01	3.080404e-05	
95	9.500000e-01	5.000000e-01	3.092366e-05	
96	9.600000e-01	5.000000e-01	3.104338e-05	
97	9.700000e-01	5.000000e-01	3.116319e-05	
98	9.800000e-01	5.000000e-01	3.128310e-05	
99	9.900000e-01	5.000000e-01	3.140310e-05	
100	1.000000e+00	5.000000e-01	3.152320e-05	
101	1.010000e+00	5.000000e-01	3.164339e-05	
102	1.020000e+00	5.000000e-01	3.176367e-05	
103	1.030000e+00	5.000000e-01	3.188406e-05	
104	1.040000e+00	5.000000e-01	3.200453e-05	
105	1.050000e+00	5.000000e-01	3.212511e-05	
106	1.060000e+00	5.000000e-01	3.224577e-05	
107	1.070000e+00	5.000000e-01	3.236654e-05	
108	1.080000e+00	5.000000e-01	3.248740e-05	
109	1.090000e+00	5.000000e-01	3.260836e-05	
110	1.100000e+00	5.000000e-01	3.272942e-05	
111	1.110000e+00	5.000000e-01	3.285058e-05	
112	1.120000e+00	5.000000e-01	3.297183e-05	

Index   v-sweep         v(g)            vs#branch       
--------------------------------------------------------------------------------
113	1.130000e+00	5.000000e-01	3.309318e-05	
114	1.140000e+00	5.000000e-01	3.321463e-05	
115	1.150000e+00	5.000000e-01	3.333617e-05	
116	1.160000e+00	5.000000e-01	3.345782e-05	
117	1.170000e+00	5.000000e-01	3.357956e-05	
118	1.180000e+00	5.000000e-01	3.370141e-05	
119	1.190000e+00	5.000000e-01	3.382335e-05	
120	1.200000e+00	5.000000e-01	3.394539e-05	
121	1.210000e+00	5.000000e-01	3.406753e-05	
122	1.220000e+00	5.000000e-01	3.418977e-05	
123	1.230000e+00	5.000000e-01	3.431211e-05	
124	1.240000e+00	5.000000e-01	3.443455e-05	
125	1.250000e+00	5.000000e-01	3.455709e-05	
126	1.260000e+00	5.000000e-01	3.467973e-05	
127	1.270000e+00	5.000000e-01	3.480247e-05	
128	1.280000e+00	5.000000e-01	3.492532e-05	
129	1.290000e+00	5.000000e-01	3.504826e-05	
130	1.300000e+00	5.000000e-01	3.517130e-05	
131	1.310000e+00	5.000000e-01	3.529444e-05	
132	1.320000e+00	5.000000e-01	3.541769e-05	
133	1.330000e+00	5.000000e-01	3.554103e-05	
134	1.340000e+00	5.000000e-01	3.566448e-05	
135	1.350000e+00	5.000000e-01	3.578803e-05	
136	1.360000e+00	5.000000e-01	3.591168e-05	
137	1.370000e+00	5.000000e-01	3.603543e-05	
138	1.380000e+00	5.000000e-01	3.615928e-05	
139	1.390000e+00	5.000000e-01	3.628324e-05	
140	1.400000e+00	5.000000e-01	3.640729e-05	
141	1.410000e+00	5.000000e-01	3.653145e-05	
142	1.420000e+00	5.000000e-01	3.665571e-05	
143	1.430000e+00	5.000000e-01	3.678008e-05	
144	1.440000e+00	5.000000e-01	3.690454e-05	
145	1.450000e+00	5.000000e-01	3.702911e-05	
146	1.460000e+00	5.000000e-01	3.715378e-05	
147	1.470000e+00	5.000000e-01	3.727856e-05	
148	1.480000e+00	5.000000e-01	3.740343e-05	
149	1.490000e+00	5.000000e-01	3.752841e-05	
150	1.500000e+00	5.000000e-01	3.765349e-05	
151	1.510000e+00	5.000000e-01	3.777868e-05	
152	1.520000e+00	5.000000e-01	3.790396e-05	
153	1.530000e+00	5.000000e-01	3.802935e-05	
154	1.540000e+00	5.000000e-01	3.815485e-05	
155	1.550000e+00	5.000000e-01	3.828045e-05	
156	1.560000e+00	5.000000e-01	3.840615e-05	
157	1.570000e+00	5.000000e-01	3.853195e-05	
158	1.580000e+00	5.000000e-01	3.865786e-05	
159	1.590000e+00	5.000000e-01	3.878387e-05	
160	1.600000e+00	5.000000e-01	3.890999e-05	
161	1.610000e+00	5.000000e-01	3.903621e-05	
162	1.620000e+00	5.000000e-01	3.916253e-05	
163	1.630000e+00	5.000000e-01	3.928896e-05	
164	1.640000e+00	5.000000e-01	3.941549e-05	
165	1.650000e+00	5.000000e-01	3.954213e-05	
166	1.660000e+00	5.000000e-01	3.966887e-05	
167	1.670000e+00	5.000000e-01	3.979571e-05	
168	1.680000e+00	5.000000e-01	3.992266e-05	
169	1.690000e+00	5.000000e-01	4.004971e-05	
170	1.700000e+00	5.000000e-01	4.017687e-05	

Index   v-sweep         v(g)            vs#branch       
--------------------------------------------------------------------------------
171	1.710000e+00	5.000000e-01	4.030413e-05	
172	1.720000e+00	5.000000e-01	4.043150e-05	
173	1.730000e+00	5.000000e-01	4.055897e-05	
174	1.740000e+00	5.000000e-01	4.068655e-05	
175	1.750000e+00	5.000000e-01	4.081423e-05	
176	1.760000e+00	5.000000e-01	4.094201e-05	
177	1.770000e+00	5.000000e-01	4.106990e-05	
178	1.780000e+00	5.000000e-01	4.119790e-05	
179	1.790000e+00	5.000000e-01	4.132600e-05	
180	1.800000e+00	5.000000e-01	4.145421e-05	
181	1.810000e+00	5.000000e-01	4.158252e-05	
182	1.820000e+00	5.000000e-01	4.171094e-05	
183	1.830000e+00	5.000000e-01	4.183946e-05	
184	1.840000e+00	5.000000e-01	4.196809e-05	
185	1.850000e+00	5.000000e-01	4.209682e-05	
186	1.860000e+00	5.000000e-01	4.222566e-05	
187	1.870000e+00	5.000000e-01	4.235461e-05	
188	1.880000e+00	5.000000e-01	4.248366e-05	
189	1.890000e+00	5.000000e-01	4.261281e-05	
190	1.900000e+00	5.000000e-01	4.274208e-05	
191	1.910000e+00	5.000000e-01	4.287144e-05	
192	1.920000e+00	5.000000e-01	4.300092e-05	
193	1.930000e+00	5.000000e-01	4.313050e-05	
194	1.940000e+00	5.000000e-01	4.326018e-05	
195	1.950000e+00	5.000000e-01	4.338998e-05	
196	1.960000e+00	5.000000e-01	4.351988e-05	
197	1.970000e+00	5.000000e-01	4.364988e-05	
198	1.980000e+00	5.000000e-01	4.377999e-05	
199	1.990000e+00	5.000000e-01	4.391021e-05	
200	2.000000e+00	5.000000e-01	4.404053e-05	
201	2.010000e+00	5.000000e-01	4.417096e-05	
202	2.020000e+00	5.000000e-01	4.430150e-05	
203	2.030000e+00	5.000000e-01	4.443214e-05	
204	2.040000e+00	5.000000e-01	4.456289e-05	
205	2.050000e+00	5.000000e-01	4.469375e-05	
206	2.060000e+00	5.000000e-01	4.482471e-05	
207	2.070000e+00	5.000000e-01	4.495578e-05	
208	2.080000e+00	5.000000e-01	4.508696e-05	
209	2.090000e+00	5.000000e-01	4.521825e-05	
210	2.100000e+00	5.000000e-01	4.534964e-05	
211	2.110000e+00	5.000000e-01	4.548114e-05	
212	2.120000e+00	5.000000e-01	4.561274e-05	
213	2.130000e+00	5.000000e-01	4.574445e-05	
214	2.140000e+00	5.000000e-01	4.587627e-05	
215	2.150000e+00	5.000000e-01	4.600820e-05	
216	2.160000e+00	5.000000e-01	4.614024e-05	
217	2.170000e+00	5.000000e-01	4.627238e-05	
218	2.180000e+00	5.000000e-01	4.640463e-05	
219	2.190000e+00	5.000000e-01	4.653698e-05	
220	2.200000e+00	5.000000e-01	4.666945e-05	
221	2.210000e+00	5.000000e-01	4.680202e-05	
222	2.220000e+00	5.000000e-01	4.693470e-05	
223	2.230000e+00	5.000000e-01	4.706749e-05	
224	2.240000e+00	5.000000e-01	4.720038e-05	
225	2.250000e+00	5.000000e-01	4.733338e-05	
226	2.260000e+00	5.000000e-01	4.746649e-05	
227	2.270000e+00	5.000000e-01	4.759971e-05	
228	2.280000e+00	5.000000e-01	4.773304e-05	

Index   v-sweep         v(g)            vs#branch       
--------------------------------------------------------------------------------
229	2.290000e+00	5.000000e-01	4.786647e-05	
230	2.300000e+00	5.000000e-01	4.800002e-05	
231	2.310000e+00	5.000000e-01	4.813367e-05	
232	2.320000e+00	5.000000e-01	4.826743e-05	
233	2.330000e+00	5.000000e-01	4.840129e-05	
234	2.340000e+00	5.000000e-01	4.853527e-05	
235	2.350000e+00	5.000000e-01	4.866935e-05	
236	2.360000e+00	5.000000e-01	4.880354e-05	
237	2.370000e+00	5.000000e-01	4.893784e-05	
238	2.380000e+00	5.000000e-01	4.907225e-05	
239	2.390000e+00	5.000000e-01	4.920677e-05	
240	2.400000e+00	5.000000e-01	4.934140e-05	
241	2.410000e+00	5.000000e-01	4.947613e-05	
242	2.420000e+00	5.000000e-01	4.961097e-05	
243	2.430000e+00	5.000000e-01	4.974593e-05	
244	2.440000e+00	5.000000e-01	4.988099e-05	
245	2.450000e+00	5.000000e-01	5.001616e-05	
246	2.460000e+00	5.000000e-01	5.015143e-05	
247	2.470000e+00	5.000000e-01	5.028682e-05	
248	2.480000e+00	5.000000e-01	5.042232e-05	
249	2.490000e+00	5.000000e-01	5.055792e-05	
250	2.500000e+00	5.000000e-01	5.069364e-05	
251	2.510000e+00	5.000000e-01	5.082946e-05	
252	2.520000e+00	5.000000e-01	5.096539e-05	
253	2.530000e+00	5.000000e-01	5.110144e-05	
254	2.540000e+00	5.000000e-01	5.123759e-05	
255	2.550000e+00	5.000000e-01	5.137385e-05	
256	2.560000e+00	5.000000e-01	5.151022e-05	
257	2.570000e+00	5.000000e-01	5.164670e-05	
258	2.580000e+00	5.000000e-01	5.178328e-05	
259	2.590000e+00	5.000000e-01	5.191998e-05	
260	2.600000e+00	5.000000e-01	5.205679e-05	
261	2.610000e+00	5.000000e-01	5.219371e-05	
262	2.620000e+00	5.000000e-01	5.233073e-05	
263	2.630000e+00	5.000000e-01	5.246787e-05	
264	2.640000e+00	5.000000e-01	5.260512e-05	
265	2.650000e+00	5.000000e-01	5.274247e-05	
266	2.660000e+00	5.000000e-01	5.287994e-05	
267	2.670000e+00	5.000000e-01	5.301751e-05	
268	2.680000e+00	5.000000e-01	5.315520e-05	
269	2.690000e+00	5.000000e-01	5.329300e-05	
270	2.700000e+00	5.000000e-01	5.343090e-05	
271	2.710000e+00	5.000000e-01	5.356892e-05	
272	2.720000e+00	5.000000e-01	5.370704e-05	
273	2.730000e+00	5.000000e-01	5.384528e-05	
274	2.740000e+00	5.000000e-01	5.398363e-05	
275	2.750000e+00	5.000000e-01	5.412208e-05	
276	2.760000e+00	5.000000e-01	5.426065e-05	
277	2.770000e+00	5.000000e-01	5.439933e-05	
278	2.780000e+00	5.000000e-01	5.453811e-05	
279	2.790000e+00	5.000000e-01	5.467701e-05	
280	2.800000e+00	5.000000e-01	5.481602e-05	
281	2.810000e+00	5.000000e-01	5.495514e-05	
282	2.820000e+00	5.000000e-01	5.509437e-05	
283	2.830000e+00	5.000000e-01	5.523371e-05	
284	2.840000e+00	5.000000e-01	5.537316e-05	
285	2.850000e+00	5.000000e-01	5.551272e-05	
286	2.860000e+00	5.000000e-01	5.565239e-05	

Index   v-sweep         v(g)            vs#branch       
--------------------------------------------------------------------------------
287	2.870000e+00	5.000000e-01	5.579218e-05	
288	2.880000e+00	5.000000e-01	5.593207e-05	
289	2.890000e+00	5.000000e-01	5.607208e-05	
290	2.900000e+00	5.000000e-01	5.621219e-05	
291	2.910000e+00	5.000000e-01	5.635242e-05	
292	2.920000e+00	5.000000e-01	5.649276e-05	
293	2.930000e+00	5.000000e-01	5.663321e-05	
294	2.940000e+00	5.000000e-01	5.677377e-05	
295	2.950000e+00	5.000000e-01	5.691444e-05	
296	2.960000e+00	5.000000e-01	5.705522e-05	
297	2.970000e+00	5.000000e-01	5.719612e-05	
298	2.980000e+00	5.000000e-01	5.733712e-05	
299	2.990000e+00	5.000000e-01	5.747824e-05	
300	3.000000e+00	5.000000e-01	5.761947e-05	
301	0.000000e+00	1.000000e+00	-1.250000e-19	
302	1.000000e-02	1.000000e+00	3.008580e-05	
303	2.000000e-02	1.000000e+00	5.960829e-05	
304	3.000000e-02	1.000000e+00	8.856943e-05	
305	4.000000e-02	1.000000e+00	1.169712e-04	
306	5.000000e-02	1.000000e+00	1.448155e-04	
307	6.000000e-02	1.000000e+00	1.721043e-04	
308	7.000000e-02	1.000000e+00	1.988396e-04	
309	8.000000e-02	1.000000e+00	2.250233e-04	
310	9.000000e-02	1.000000e+00	2.506572e-04	
311	1.000000e-01	1.000000e+00	2.760169e-04	
312	1.100000e-01	1.000000e+00	3.005563e-04	
313	1.200000e-01	1.000000e+00	3.245517e-04	
314	1.300000e-01	1.000000e+00	3.480051e-04	
315	1.400000e-01	1.000000e+00	3.709184e-04	
316	1.500000e-01	1.000000e+00	3.932934e-04	
317	1.600000e-01	1.000000e+00	4.151321e-04	
318	1.700000e-01	1.000000e+00	4.364364e-04	
319	1.800000e-01	1.000000e+00	4.572082e-04	
320	1.900000e-01	1.000000e+00	4.774494e-04	
321	2.000000e-01	1.000000e+00	4.971618e-04	
322	2.100000e-01	1.000000e+00	5.163475e-04	
323	2.200000e-01	1.000000e+00	5.350084e-04	
324	2.300000e-01	1.000000e+00	5.531463e-04	
325	2.400000e-01	1.000000e+00	5.707632e-04	
326	2.500000e-01	1.000000e+00	5.878612e-04	
327	2.600000e-01	1.000000e+00	6.044421e-04	
328	2.700000e-01	1.000000e+00	6.205080e-04	
329	2.800000e-01	1.000000e+00	6.360610e-04	
330	2.900000e-01	1.000000e+00	6.511031e-04	
331	3.000000e-01	1.000000e+00	6.656366e-04	
332	3.100000e-01	1.000000e+00	6.796635e-04	
333	3.200000e-01	1.000000e+00	6.931863e-04	
334	3.300000e-01	1.000000e+00	7.062073e-04	
335	3.400000e-01	1.000000e+00	7.187291e-04	
336	3.500000e-01	1.000000e+00	7.307544e-04	
337	3.600000e-01	1.000000e+00	7.422861e-04	
338	3.700000e-01	1.000000e+00	7.533272e-04	
339	3.800000e-01	1.000000e+00	7.638814e-04	
340	3.900000e-01	1.000000e+00	7.739524e-04	
341	4.000000e-01	1.000000e+00	7.835445e-04	
342	4.100000e-01	1.000000e+00	7.926628e-04	
343	4.200000e-01	1.000000e+00	8.013129e-04	
344	4.300000e-01	1.000000e+00	8.095013e-04	

Index   v-sweep         v(g)            vs#branch       
--------------------------------------------------------------------------------
345	4.400000e-01	1.000000e+00	8.172357e-04	
346	4.500000e-01	1.000000e+00	8.245250e-04	
347	4.600000e-01	1.000000e+00	8.313797e-04	
348	4.700000e-01	1.000000e+00	8.378116e-04	
349	4.800000e-01	1.000000e+00	8.438347e-04	
350	4.900000e-01	1.000000e+00	8.494647e-04	
351	5.000000e-01	1.000000e+00	8.547190e-04	
352	5.100000e-01	1.000000e+00	8.596170e-04	
353	5.200000e-01	1.000000e+00	8.641793e-04	
354	5.300000e-01	1.000000e+00	8.684279e-04	
355	5.400000e-01	1.000000e+00	8.723852e-04	
356	5.500000e-01	1.000000e+00	8.760739e-04	
357	5.600000e-01	1.000000e+00	8.795164e-04	
358	5.700000e-01	1.000000e+00	8.827344e-04	
359	5.800000e-01	1.000000e+00	8.857487e-04	
360	5.900000e-01	1.000000e+00	8.885786e-04	
361	6.000000e-01	1.000000e+00	8.912422e-04	
362	6.100000e-01	1.000000e+00	8.937558e-04	
363	6.200000e-01	1.000000e+00	8.961346e-04	
364	6.300000e-01	1.000000e+00	8.983919e-04	
365	6.400000e-01	1.000000e+00	9.005400e-04	
366	6.500000e-01	1.000000e+00	9.025896e-04	
367	6.600000e-01	1.000000e+00	9.045506e-04	
368	6.700000e-01	1.000000e+00	9.064315e-04	
369	6.800000e-01	1.000000e+00	9.082400e-04	
370	6.900000e-01	1.000000e+00	9.099829e-04	
371	7.000000e-01	1.000000e+00	9.116664e-04	
372	7.100000e-01	1.000000e+00	9.132959e-04	
373	7.200000e-01	1.000000e+00	9.148761e-04	
374	7.300000e-01	1.000000e+00	9.164115e-04	
375	7.400000e-01	1.000000e+00	9.179058e-04	
376	7.500000e-01	1.000000e+00	9.193625e-04	
377	7.600000e-01	1.000000e+00	9.207848e-04	
378	7.700000e-01	1.000000e+00	9.221753e-04	
379	7.800000e-01	1.000000e+00	9.235367e-04	
380	7.900000e-01	1.000000e+00	9.248711e-04	
381	8.000000e-01	1.000000e+00	9.261806e-04	
382	8.100000e-01	1.000000e+00	9.274671e-04	
383	8.200000e-01	1.000000e+00	9.287322e-04	
384	8.300000e-01	1.000000e+00	9.299774e-04	
385	8.400000e-01	1.000000e+00	9.312042e-04	
386	8.500000e-01	1.000000e+00	9.324138e-04	
387	8.600000e-01	1.000000e+00	9.336073e-04	
388	8.700000e-01	1.000000e+00	9.347859e-04	
389	8.800000e-01	1.000000e+00	9.359504e-04	
390	8.900000e-01	1.000000e+00	9.371018e-04	
391	9.000000e-01	1.000000e+00	9.382408e-04	
392	9.100000e-01	1.000000e+00	9.393683e-04	
393	9.200000e-01	1.000000e+00	9.404849e-04	
394	9.300000e-01	1.000000e+00	9.415913e-04	
395	9.400000e-01	1.000000e+00	9.426880e-04	
396	9.500000e-01	1.000000e+00	9.437756e-04	
397	9.600000e-01	1.000000e+00	9.448547e-04	
398	9.700000e-01	1.000000e+00	9.459256e-04	
399	9.800000e-01	1.000000e+00	9.469888e-04	
400	9.900000e-01	1.000000e+00	9.480447e-04	
401	1.000000e+00	1.000000e+00	9.490938e-04	
402	1.010000e+00	1.000000e+00	9.501363e-04	

Index   v-sweep         v(g)            vs#branch       
--------------------------------------------------------------------------------
403	1.020000e+00	1.000000e+00	9.511726e-04	
404	1.030000e+00	1.000000e+00	9.522029e-04	
405	1.040000e+00	1.000000e+00	9.532277e-04	
406	1.050000e+00	1.000000e+00	9.542471e-04	
407	1.060000e+00	1.000000e+00	9.552614e-04	
408	1.070000e+00	1.000000e+00	9.562709e-04	
409	1.080000e+00	1.000000e+00	9.572757e-04	
410	1.090000e+00	1.000000e+00	9.582762e-04	
411	1.100000e+00	1.000000e+00	9.592724e-04	
412	1.110000e+00	1.000000e+00	9.602645e-04	
413	1.120000e+00	1.000000e+00	9.612528e-04	
414	1.130000e+00	1.000000e+00	9.622374e-04	
415	1.140000e+00	1.000000e+00	9.632185e-04	
416	1.150000e+00	1.000000e+00	9.641962e-04	
417	1.160000e+00	1.000000e+00	9.651706e-04	
418	1.170000e+00	1.000000e+00	9.661419e-04	
419	1.180000e+00	1.000000e+00	9.671102e-04	
420	1.190000e+00	1.000000e+00	9.680757e-04	
421	1.200000e+00	1.000000e+00	9.690384e-04	
422	1.210000e+00	1.000000e+00	9.699984e-04	
423	1.220000e+00	1.000000e+00	9.709559e-04	
424	1.230000e+00	1.000000e+00	9.719109e-04	
425	1.240000e+00	1.000000e+00	9.728636e-04	
426	1.250000e+00	1.000000e+00	9.738140e-04	
427	1.260000e+00	1.000000e+00	9.747622e-04	
428	1.270000e+00	1.000000e+00	9.757083e-04	
429	1.280000e+00	1.000000e+00	9.766524e-04	
430	1.290000e+00	1.000000e+00	9.775944e-04	
431	1.300000e+00	1.000000e+00	9.785346e-04	
432	1.310000e+00	1.000000e+00	9.794730e-04	
433	1.320000e+00	1.000000e+00	9.804096e-04	
434	1.330000e+00	1.000000e+00	9.813445e-04	
435	1.340000e+00	1.000000e+00	9.822777e-04	
436	1.350000e+00	1.000000e+00	9.832093e-04	
437	1.360000e+00	1.000000e+00	9.841394e-04	
438	1.370000e+00	1.000000e+00	9.850680e-04	
439	1.380000e+00	1.000000e+00	9.859952e-04	
440	1.390000e+00	1.000000e+00	9.869210e-04	
441	1.400000e+00	1.000000e+00	9.878454e-04	
442	1.410000e+00	1.000000e+00	9.887684e-04	
443	1.420000e+00	1.000000e+00	9.896903e-04	
444	1.430000e+00	1.000000e+00	9.906108e-04	
445	1.440000e+00	1.000000e+00	9.915302e-04	
446	1.450000e+00	1.000000e+00	9.924484e-04	
447	1.460000e+00	1.000000e+00	9.933655e-04	
448	1.470000e+00	1.000000e+00	9.942816e-04	
449	1.480000e+00	1.000000e+00	9.951965e-04	
450	1.490000e+00	1.000000e+00	9.961104e-04	
451	1.500000e+00	1.000000e+00	9.970233e-04	
452	1.510000e+00	1.000000e+00	9.979353e-04	
453	1.520000e+00	1.000000e+00	9.988463e-04	
454	1.530000e+00	1.000000e+00	9.997564e-04	
455	1.540000e+00	1.000000e+00	1.000666e-03	
456	1.550000e+00	1.000000e+00	1.001574e-03	
457	1.560000e+00	1.000000e+00	1.002481e-03	
458	1.570000e+00	1.000000e+00	1.003388e-03	
459	1.580000e+00	1.000000e+00	1.004294e-03	
460	1.590000e+00	1.000000e+00	1.005199e-03	

Index   v-sweep         v(g)            vs#branch       
--------------------------------------------------------------------------------
461	1.600000e+00	1.000000e+00	1.006103e-03	
462	1.610000e+00	1.000000e+00	1.007007e-03	
463	1.620000e+00	1.000000e+00	1.007910e-03	
464	1.630000e+00	1.000000e+00	1.008812e-03	
465	1.640000e+00	1.000000e+00	1.009714e-03	
466	1.650000e+00	1.000000e+00	1.010614e-03	
467	1.660000e+00	1.000000e+00	1.011515e-03	
468	1.670000e+00	1.000000e+00	1.012414e-03	
469	1.680000e+00	1.000000e+00	1.013313e-03	
470	1.690000e+00	1.000000e+00	1.014212e-03	
471	1.700000e+00	1.000000e+00	1.015109e-03	
472	1.710000e+00	1.000000e+00	1.016007e-03	
473	1.720000e+00	1.000000e+00	1.016903e-03	
474	1.730000e+00	1.000000e+00	1.017799e-03	
475	1.740000e+00	1.000000e+00	1.018695e-03	
476	1.750000e+00	1.000000e+00	1.019590e-03	
477	1.760000e+00	1.000000e+00	1.020484e-03	
478	1.770000e+00	1.000000e+00	1.021379e-03	
479	1.780000e+00	1.000000e+00	1.022272e-03	
480	1.790000e+00	1.000000e+00	1.023165e-03	
481	1.800000e+00	1.000000e+00	1.024058e-03	
482	1.810000e+00	1.000000e+00	1.024950e-03	
483	1.820000e+00	1.000000e+00	1.025842e-03	
484	1.830000e+00	1.000000e+00	1.026733e-03	
485	1.840000e+00	1.000000e+00	1.027624e-03	
486	1.850000e+00	1.000000e+00	1.028515e-03	
487	1.860000e+00	1.000000e+00	1.029405e-03	
488	1.870000e+00	1.000000e+00	1.030295e-03	
489	1.880000e+00	1.000000e+00	1.031184e-03	
490	1.890000e+00	1.000000e+00	1.032073e-03	
491	1.900000e+00	1.000000e+00	1.032961e-03	
492	1.910000e+00	1.000000e+00	1.033850e-03	
493	1.920000e+00	1.000000e+00	1.034738e-03	
494	1.930000e+00	1.000000e+00	1.035625e-03	
495	1.940000e+00	1.000000e+00	1.036512e-03	
496	1.950000e+00	1.000000e+00	1.037399e-03	
497	1.960000e+00	1.000000e+00	1.038286e-03	
498	1.970000e+00	1.000000e+00	1.039172e-03	
499	1.980000e+00	1.000000e+00	1.040058e-03	
500	1.990000e+00	1.000000e+00	1.040944e-03	
501	2.000000e+00	1.000000e+00	1.041829e-03	
502	2.010000e+00	1.000000e+00	1.042714e-03	
503	2.020000e+00	1.000000e+00	1.043599e-03	
504	2.030000e+00	1.000000e+00	1.044483e-03	
505	2.040000e+00	1.000000e+00	1.045368e-03	
506	2.050000e+00	1.000000e+00	1.046252e-03	
507	2.060000e+00	1.000000e+00	1.047135e-03	
508	2.070000e+00	1.000000e+00	1.048019e-03	
509	2.080000e+00	1.000000e+00	1.048902e-03	
510	2.090000e+00	1.000000e+00	1.049785e-03	
511	2.100000e+00	1.000000e+00	1.050668e-03	
512	2.110000e+00	1.000000e+00	1.051550e-03	
513	2.120000e+00	1.000000e+00	1.052432e-03	
514	2.130000e+00	1.000000e+00	1.053314e-03	
515	2.140000e+00	1.000000e+00	1.054196e-03	
516	2.150000e+00	1.000000e+00	1.055078e-03	
517	2.160000e+00	1.000000e+00	1.055959e-03	
518	2.170000e+00	1.000000e+00	1.056840e-03	

Index   v-sweep         v(g)            vs#branch       
--------------------------------------------------------------------------------
519	2.180000e+00	1.000000e+00	1.057721e-03	
520	2.190000e+00	1.000000e+00	1.058602e-03	
521	2.200000e+00	1.000000e+00	1.059483e-03	
522	2.210000e+00	1.000000e+00	1.060363e-03	
523	2.220000e+00	1.000000e+00	1.061243e-03	
524	2.230000e+00	1.000000e+00	1.062123e-03	
525	2.240000e+00	1.000000e+00	1.063003e-03	
526	2.250000e+00	1.000000e+00	1.063883e-03	
527	2.260000e+00	1.000000e+00	1.064762e-03	
528	2.270000e+00	1.000000e+00	1.065641e-03	
529	2.280000e+00	1.000000e+00	1.066520e-03	
530	2.290000e+00	1.000000e+00	1.067399e-03	
531	2.300000e+00	1.000000e+00	1.068278e-03	
532	2.310000e+00	1.000000e+00	1.069157e-03	
533	2.320000e+00	1.000000e+00	1.070035e-03	
534	2.330000e+00	1.000000e+00	1.070913e-03	
535	2.340000e+00	1.000000e+00	1.071792e-03	
536	2.350000e+00	1.000000e+00	1.072670e-03	
537	2.360000e+00	1.000000e+00	1.073547e-03	
538	2.370000e+00	1.000000e+00	1.074425e-03	
539	2.380000e+00	1.000000e+00	1.075303e-03	
540	2.390000e+00	1.000000e+00	1.076180e-03	
541	2.400000e+00	1.000000e+00	1.077057e-03	
542	2.410000e+00	1.000000e+00	1.077935e-03	
543	2.420000e+00	1.000000e+00	1.078812e-03	
544	2.430000e+00	1.000000e+00	1.079689e-03	
545	2.440000e+00	1.000000e+00	1.080565e-03	
546	2.450000e+00	1.000000e+00	1.081442e-03	
547	2.460000e+00	1.000000e+00	1.082318e-03	
548	2.470000e+00	1.000000e+00	1.083195e-03	
549	2.480000e+00	1.000000e+00	1.084071e-03	
550	2.490000e+00	1.000000e+00	1.084947e-03	
551	2.500000e+00	1.000000e+00	1.085823e-03	
552	2.510000e+00	1.000000e+00	1.086699e-03	
553	2.520000e+00	1.000000e+00	1.087575e-03	
554	2.530000e+00	1.000000e+00	1.088451e-03	
555	2.540000e+00	1.000000e+00	1.089327e-03	
556	2.550000e+00	1.000000e+00	1.090202e-03	
557	2.560000e+00	1.000000e+00	1.091077e-03	
558	2.570000e+00	1.000000e+00	1.091953e-03	
559	2.580000e+00	1.000000e+00	1.092828e-03	
560	2.590000e+00	1.000000e+00	1.093703e-03	
561	2.600000e+00	1.000000e+00	1.094578e-03	
562	2.610000e+00	1.000000e+00	1.095453e-03	
563	2.620000e+00	1.000000e+00	1.096328e-03	
564	2.630000e+00	1.000000e+00	1.097203e-03	
565	2.640000e+00	1.000000e+00	1.098077e-03	
566	2.650000e+00	1.000000e+00	1.098952e-03	
567	2.660000e+00	1.000000e+00	1.099826e-03	
568	2.670000e+00	1.000000e+00	1.100701e-03	
569	2.680000e+00	1.000000e+00	1.101575e-03	
570	2.690000e+00	1.000000e+00	1.102449e-03	
571	2.700000e+00	1.000000e+00	1.103324e-03	
572	2.710000e+00	1.000000e+00	1.104198e-03	
573	2.720000e+00	1.000000e+00	1.105072e-03	
574	2.730000e+00	1.000000e+00	1.105946e-03	
575	2.740000e+00	1.000000e+00	1.106819e-03	
576	2.750000e+00	1.000000e+00	1.107693e-03	

Index   v-sweep         v(g)            vs#branch       
--------------------------------------------------------------------------------
577	2.760000e+00	1.000000e+00	1.108567e-03	
578	2.770000e+00	1.000000e+00	1.109440e-03	
579	2.780000e+00	1.000000e+00	1.110314e-03	
580	2.790000e+00	1.000000e+00	1.111188e-03	
581	2.800000e+00	1.000000e+00	1.112061e-03	
582	2.810000e+00	1.000000e+00	1.112934e-03	
583	2.820000e+00	1.000000e+00	1.113808e-03	
584	2.830000e+00	1.000000e+00	1.114681e-03	
585	2.840000e+00	1.000000e+00	1.115554e-03	
586	2.850000e+00	1.000000e+00	1.116427e-03	
587	2.860000e+00	1.000000e+00	1.117300e-03	
588	2.870000e+00	1.000000e+00	1.118173e-03	
589	2.880000e+00	1.000000e+00	1.119046e-03	
590	2.890000e+00	1.000000e+00	1.119919e-03	
591	2.900000e+00	1.000000e+00	1.120792e-03	
592	2.910000e+00	1.000000e+00	1.121664e-03	
593	2.920000e+00	1.000000e+00	1.122537e-03	
594	2.930000e+00	1.000000e+00	1.123410e-03	
595	2.940000e+00	1.000000e+00	1.124282e-03	
596	2.950000e+00	1.000000e+00	1.125155e-03	
597	2.960000e+00	1.000000e+00	1.126027e-03	
598	2.970000e+00	1.000000e+00	1.126900e-03	
599	2.980000e+00	1.000000e+00	1.127772e-03	
600	2.990000e+00	1.000000e+00	1.128645e-03	
601	3.000000e+00	1.000000e+00	1.129517e-03	
602	0.000000e+00	1.500000e+00	-1.250000e-19	
603	1.000000e-02	1.500000e+00	4.561848e-05	
604	2.000000e-02	1.500000e+00	9.076433e-05	
605	3.000000e-02	1.500000e+00	1.354387e-04	
606	4.000000e-02	1.500000e+00	1.796427e-04	
607	5.000000e-02	1.500000e+00	2.233776e-04	
608	6.000000e-02	1.500000e+00	2.668782e-04	
609	7.000000e-02	1.500000e+00	3.096776e-04	
610	8.000000e-02	1.500000e+00	3.520112e-04	
611	9.000000e-02	1.500000e+00	3.938802e-04	
612	1.000000e-01	1.500000e+00	4.352856e-04	
613	1.100000e-01	1.500000e+00	4.762287e-04	
614	1.200000e-01	1.500000e+00	5.167105e-04	
615	1.300000e-01	1.500000e+00	5.567322e-04	
616	1.400000e-01	1.500000e+00	5.962948e-04	
617	1.500000e-01	1.500000e+00	6.353995e-04	
618	1.600000e-01	1.500000e+00	6.740473e-04	
619	1.700000e-01	1.500000e+00	7.122394e-04	
620	1.800000e-01	1.500000e+00	7.499769e-04	
621	1.900000e-01	1.500000e+00	7.872608e-04	
622	2.000000e-01	1.500000e+00	8.240922e-04	
623	2.100000e-01	1.500000e+00	8.604722e-04	
624	2.200000e-01	1.500000e+00	8.964018e-04	
625	2.300000e-01	1.500000e+00	9.318822e-04	
626	2.400000e-01	1.500000e+00	9.669144e-04	
627	2.500000e-01	1.500000e+00	1.001499e-03	
628	2.600000e-01	1.500000e+00	1.035638e-03	
629	2.700000e-01	1.500000e+00	1.069332e-03	
630	2.800000e-01	1.500000e+00	1.102582e-03	
631	2.900000e-01	1.500000e+00	1.135389e-03	
632	3.000000e-01	1.500000e+00	1.167754e-03	
633	3.100000e-01	1.500000e+00	1.199678e-03	
634	3.200000e-01	1.500000e+00	1.231162e-03	

Index   v-sweep         v(g)            vs#branch       
--------------------------------------------------------------------------------
635	3.300000e-01	1.500000e+00	1.262207e-03	
636	3.400000e-01	1.500000e+00	1.292814e-03	
637	3.500000e-01	1.500000e+00	1.322984e-03	
638	3.600000e-01	1.500000e+00	1.352718e-03	
639	3.700000e-01	1.500000e+00	1.382017e-03	
640	3.800000e-01	1.500000e+00	1.410882e-03	
641	3.900000e-01	1.500000e+00	1.439314e-03	
642	4.000000e-01	1.500000e+00	1.467314e-03	
643	4.100000e-01	1.500000e+00	1.494883e-03	
644	4.200000e-01	1.500000e+00	1.522021e-03	
645	4.300000e-01	1.500000e+00	1.548730e-03	
646	4.400000e-01	1.500000e+00	1.575010e-03	
647	4.500000e-01	1.500000e+00	1.600863e-03	
648	4.600000e-01	1.500000e+00	1.626289e-03	
649	4.700000e-01	1.500000e+00	1.651288e-03	
650	4.800000e-01	1.500000e+00	1.675863e-03	
651	4.900000e-01	1.500000e+00	1.700013e-03	
652	5.000000e-01	1.500000e+00	1.723740e-03	
653	5.100000e-01	1.500000e+00	1.747043e-03	
654	5.200000e-01	1.500000e+00	1.769924e-03	
655	5.300000e-01	1.500000e+00	1.792384e-03	
656	5.400000e-01	1.500000e+00	1.814423e-03	
657	5.500000e-01	1.500000e+00	1.836041e-03	
658	5.600000e-01	1.500000e+00	1.857239e-03	
659	5.700000e-01	1.500000e+00	1.878018e-03	
660	5.800000e-01	1.500000e+00	1.898378e-03	
661	5.900000e-01	1.500000e+00	1.918320e-03	
662	6.000000e-01	1.500000e+00	1.937843e-03	
663	6.100000e-01	1.500000e+00	1.956948e-03	
664	6.200000e-01	1.500000e+00	1.975635e-03	
665	6.300000e-01	1.500000e+00	1.993905e-03	
666	6.400000e-01	1.500000e+00	2.011756e-03	
667	6.500000e-01	1.500000e+00	2.029189e-03	
668	6.600000e-01	1.500000e+00	2.046204e-03	
669	6.700000e-01	1.500000e+00	2.062801e-03	
670	6.800000e-01	1.500000e+00	2.078977e-03	
671	6.900000e-01	1.500000e+00	2.094734e-03	
672	7.000000e-01	1.500000e+00	2.110070e-03	
673	7.100000e-01	1.500000e+00	2.124985e-03	
674	7.200000e-01	1.500000e+00	2.139477e-03	
675	7.300000e-01	1.500000e+00	2.153544e-03	
676	7.400000e-01	1.500000e+00	2.167187e-03	
677	7.500000e-01	1.500000e+00	2.180403e-03	
678	7.600000e-01	1.500000e+00	2.193191e-03	
679	7.700000e-01	1.500000e+00	2.205550e-03	
680	7.800000e-01	1.500000e+00	2.217478e-03	
681	7.900000e-01	1.500000e+00	2.228975e-03	
682	8.000000e-01	1.500000e+00	2.240039e-03	
683	8.100000e-01	1.500000e+00	2.250672e-03	
684	8.200000e-01	1.500000e+00	2.260874e-03	
685	8.300000e-01	1.500000e+00	2.270645e-03	
686	8.400000e-01	1.500000e+00	2.279989e-03	
687	8.500000e-01	1.500000e+00	2.288910e-03	
688	8.600000e-01	1.500000e+00	2.297413e-03	
689	8.700000e-01	1.500000e+00	2.305505e-03	
690	8.800000e-01	1.500000e+00	2.313195e-03	
691	8.900000e-01	1.500000e+00	2.320492e-03	
692	9.000000e-01	1.500000e+00	2.327409e-03	

Index   v-sweep         v(g)            vs#branch       
--------------------------------------------------------------------------------
693	9.100000e-01	1.500000e+00	2.333960e-03	
694	9.200000e-01	1.500000e+00	2.340158e-03	
695	9.300000e-01	1.500000e+00	2.346021e-03	
696	9.400000e-01	1.500000e+00	2.351565e-03	
697	9.500000e-01	1.500000e+00	2.356806e-03	
698	9.600000e-01	1.500000e+00	2.361763e-03	
699	9.700000e-01	1.500000e+00	2.366454e-03	
700	9.800000e-01	1.500000e+00	2.370895e-03	
701	9.900000e-01	1.500000e+00	2.375103e-03	
702	1.000000e+00	1.500000e+00	2.379095e-03	
703	1.010000e+00	1.500000e+00	2.382886e-03	
704	1.020000e+00	1.500000e+00	2.386490e-03	
705	1.030000e+00	1.500000e+00	2.389922e-03	
706	1.040000e+00	1.500000e+00	2.393195e-03	
707	1.050000e+00	1.500000e+00	2.396320e-03	
708	1.060000e+00	1.500000e+00	2.399308e-03	
709	1.070000e+00	1.500000e+00	2.402171e-03	
710	1.080000e+00	1.500000e+00	2.404917e-03	
711	1.090000e+00	1.500000e+00	2.407555e-03	
712	1.100000e+00	1.500000e+00	2.410094e-03	
713	1.110000e+00	1.500000e+00	2.412541e-03	
714	1.120000e+00	1.500000e+00	2.414901e-03	
715	1.130000e+00	1.500000e+00	2.417183e-03	
716	1.140000e+00	1.500000e+00	2.419391e-03	
717	1.150000e+00	1.500000e+00	2.421531e-03	
718	1.160000e+00	1.500000e+00	2.423607e-03	
719	1.170000e+00	1.500000e+00	2.425624e-03	
720	1.180000e+00	1.500000e+00	2.427587e-03	
721	1.190000e+00	1.500000e+00	2.429497e-03	
722	1.200000e+00	1.500000e+00	2.431360e-03	
723	1.210000e+00	1.500000e+00	2.433178e-03	
724	1.220000e+00	1.500000e+00	2.434954e-03	
725	1.230000e+00	1.500000e+00	2.436691e-03	
726	1.240000e+00	1.500000e+00	2.438390e-03	
727	1.250000e+00	1.500000e+00	2.440056e-03	
728	1.260000e+00	1.500000e+00	2.441689e-03	
729	1.270000e+00	1.500000e+00	2.443291e-03	
730	1.280000e+00	1.500000e+00	2.444865e-03	
731	1.290000e+00	1.500000e+00	2.446411e-03	
732	1.300000e+00	1.500000e+00	2.447932e-03	
733	1.310000e+00	1.500000e+00	2.449429e-03	
734	1.320000e+00	1.500000e+00	2.450904e-03	
735	1.330000e+00	1.500000e+00	2.452356e-03	
736	1.340000e+00	1.500000e+00	2.453789e-03	
737	1.350000e+00	1.500000e+00	2.455202e-03	
738	1.360000e+00	1.500000e+00	2.456597e-03	
739	1.370000e+00	1.500000e+00	2.457974e-03	
740	1.380000e+00	1.500000e+00	2.459335e-03	
741	1.390000e+00	1.500000e+00	2.460680e-03	
742	1.400000e+00	1.500000e+00	2.462011e-03	
743	1.410000e+00	1.500000e+00	2.463327e-03	
744	1.420000e+00	1.500000e+00	2.464630e-03	
745	1.430000e+00	1.500000e+00	2.465920e-03	
746	1.440000e+00	1.500000e+00	2.467197e-03	
747	1.450000e+00	1.500000e+00	2.468463e-03	
748	1.460000e+00	1.500000e+00	2.469718e-03	
749	1.470000e+00	1.500000e+00	2.470962e-03	
750	1.480000e+00	1.500000e+00	2.472196e-03	

Index   v-sweep         v(g)            vs#branch       
--------------------------------------------------------------------------------
751	1.490000e+00	1.500000e+00	2.473420e-03	
752	1.500000e+00	1.500000e+00	2.474635e-03	
753	1.510000e+00	1.500000e+00	2.475841e-03	
754	1.520000e+00	1.500000e+00	2.477038e-03	
755	1.530000e+00	1.500000e+00	2.478227e-03	
756	1.540000e+00	1.500000e+00	2.479408e-03	
757	1.550000e+00	1.500000e+00	2.480582e-03	
758	1.560000e+00	1.500000e+00	2.481748e-03	
759	1.570000e+00	1.500000e+00	2.482907e-03	
760	1.580000e+00	1.500000e+00	2.484060e-03	
761	1.590000e+00	1.500000e+00	2.485206e-03	
762	1.600000e+00	1.500000e+00	2.486346e-03	
763	1.610000e+00	1.500000e+00	2.487480e-03	
764	1.620000e+00	1.500000e+00	2.488608e-03	
765	1.630000e+00	1.500000e+00	2.489730e-03	
766	1.640000e+00	1.500000e+00	2.490848e-03	
767	1.650000e+00	1.500000e+00	2.491960e-03	
768	1.660000e+00	1.500000e+00	2.493067e-03	
769	1.670000e+00	1.500000e+00	2.494169e-03	
770	1.680000e+00	1.500000e+00	2.495267e-03	
771	1.690000e+00	1.500000e+00	2.496360e-03	
772	1.700000e+00	1.500000e+00	2.497448e-03	
773	1.710000e+00	1.500000e+00	2.498533e-03	
774	1.720000e+00	1.500000e+00	2.499614e-03	
775	1.730000e+00	1.500000e+00	2.500690e-03	
776	1.740000e+00	1.500000e+00	2.501763e-03	
777	1.750000e+00	1.500000e+00	2.502832e-03	
778	1.760000e+00	1.500000e+00	2.503898e-03	
779	1.770000e+00	1.500000e+00	2.504960e-03	
780	1.780000e+00	1.500000e+00	2.506019e-03	
781	1.790000e+00	1.500000e+00	2.507074e-03	
782	1.800000e+00	1.500000e+00	2.508127e-03	
783	1.810000e+00	1.500000e+00	2.509176e-03	
784	1.820000e+00	1.500000e+00	2.510222e-03	
785	1.830000e+00	1.500000e+00	2.511266e-03	
786	1.840000e+00	1.500000e+00	2.512307e-03	
787	1.850000e+00	1.500000e+00	2.513345e-03	
788	1.860000e+00	1.500000e+00	2.514380e-03	
789	1.870000e+00	1.500000e+00	2.515413e-03	
790	1.880000e+00	1.500000e+00	2.516444e-03	
791	1.890000e+00	1.500000e+00	2.517472e-03	
792	1.900000e+00	1.500000e+00	2.518497e-03	
793	1.910000e+00	1.500000e+00	2.519521e-03	
794	1.920000e+00	1.500000e+00	2.520542e-03	
795	1.930000e+00	1.500000e+00	2.521561e-03	
796	1.940000e+00	1.500000e+00	2.522578e-03	
797	1.950000e+00	1.500000e+00	2.523593e-03	
798	1.960000e+00	1.500000e+00	2.524606e-03	
799	1.970000e+00	1.500000e+00	2.525616e-03	
800	1.980000e+00	1.500000e+00	2.526626e-03	
801	1.990000e+00	1.500000e+00	2.527633e-03	
802	2.000000e+00	1.500000e+00	2.528638e-03	
803	2.010000e+00	1.500000e+00	2.529642e-03	
804	2.020000e+00	1.500000e+00	2.530644e-03	
805	2.030000e+00	1.500000e+00	2.531644e-03	
806	2.040000e+00	1.500000e+00	2.532643e-03	
807	2.050000e+00	1.500000e+00	2.533640e-03	
808	2.060000e+00	1.500000e+00	2.534635e-03	

Index   v-sweep         v(g)            vs#branch       
--------------------------------------------------------------------------------
809	2.070000e+00	1.500000e+00	2.535630e-03	
810	2.080000e+00	1.500000e+00	2.536622e-03	
811	2.090000e+00	1.500000e+00	2.537613e-03	
812	2.100000e+00	1.500000e+00	2.538603e-03	
813	2.110000e+00	1.500000e+00	2.539591e-03	
814	2.120000e+00	1.500000e+00	2.540578e-03	
815	2.130000e+00	1.500000e+00	2.541564e-03	
816	2.140000e+00	1.500000e+00	2.542549e-03	
817	2.150000e+00	1.500000e+00	2.543532e-03	
818	2.160000e+00	1.500000e+00	2.544514e-03	
819	2.170000e+00	1.500000e+00	2.545494e-03	
820	2.180000e+00	1.500000e+00	2.546474e-03	
821	2.190000e+00	1.500000e+00	2.547453e-03	
822	2.200000e+00	1.500000e+00	2.548430e-03	
823	2.210000e+00	1.500000e+00	2.549406e-03	
824	2.220000e+00	1.500000e+00	2.550381e-03	
825	2.230000e+00	1.500000e+00	2.551355e-03	
826	2.240000e+00	1.500000e+00	2.552329e-03	
827	2.250000e+00	1.500000e+00	2.553301e-03	
828	2.260000e+00	1.500000e+00	2.554272e-03	
829	2.270000e+00	1.500000e+00	2.555242e-03	
830	2.280000e+00	1.500000e+00	2.556211e-03	
831	2.290000e+00	1.500000e+00	2.557179e-03	
832	2.300000e+00	1.500000e+00	2.558147e-03	
833	2.310000e+00	1.500000e+00	2.559113e-03	
834	2.320000e+00	1.500000e+00	2.560079e-03	
835	2.330000e+00	1.500000e+00	2.561044e-03	
836	2.340000e+00	1.500000e+00	2.562008e-03	
837	2.350000e+00	1.500000e+00	2.562971e-03	
838	2.360000e+00	1.500000e+00	2.563933e-03	
839	2.370000e+00	1.500000e+00	2.564894e-03	
840	2.380000e+00	1.500000e+00	2.565855e-03	
841	2.390000e+00	1.500000e+00	2.566815e-03	
842	2.400000e+00	1.500000e+00	2.567774e-03	
843	2.410000e+00	1.500000e+00	2.568733e-03	
844	2.420000e+00	1.500000e+00	2.569691e-03	
845	2.430000e+00	1.500000e+00	2.570648e-03	
846	2.440000e+00	1.500000e+00	2.571604e-03	
847	2.450000e+00	1.500000e+00	2.572560e-03	
848	2.460000e+00	1.500000e+00	2.573515e-03	
849	2.470000e+00	1.500000e+00	2.574469e-03	
850	2.480000e+00	1.500000e+00	2.575423e-03	
851	2.490000e+00	1.500000e+00	2.576376e-03	
852	2.500000e+00	1.500000e+00	2.577329e-03	
853	2.510000e+00	1.500000e+00	2.578281e-03	
854	2.520000e+00	1.500000e+00	2.579232e-03	
855	2.530000e+00	1.500000e+00	2.580183e-03	
856	2.540000e+00	1.500000e+00	2.581133e-03	
857	2.550000e+00	1.500000e+00	2.582082e-03	
858	2.560000e+00	1.500000e+00	2.583031e-03	
859	2.570000e+00	1.500000e+00	2.583980e-03	
860	2.580000e+00	1.500000e+00	2.584928e-03	
861	2.590000e+00	1.500000e+00	2.585875e-03	
862	2.600000e+00	1.500000e+00	2.586822e-03	
863	2.610000e+00	1.500000e+00	2.587768e-03	
864	2.620000e+00	1.500000e+00	2.588714e-03	
865	2.630000e+00	1.500000e+00	2.589660e-03	
866	2.640000e+00	1.500000e+00	2.590604e-03	

Index   v-sweep         v(g)            vs#branch       
--------------------------------------------------------------------------------
867	2.650000e+00	1.500000e+00	2.591549e-03	
868	2.660000e+00	1.500000e+00	2.592493e-03	
869	2.670000e+00	1.500000e+00	2.593436e-03	
870	2.680000e+00	1.500000e+00	2.594379e-03	
871	2.690000e+00	1.500000e+00	2.595322e-03	
872	2.700000e+00	1.500000e+00	2.596264e-03	
873	2.710000e+00	1.500000e+00	2.597205e-03	
874	2.720000e+00	1.500000e+00	2.598147e-03	
875	2.730000e+00	1.500000e+00	2.599088e-03	
876	2.740000e+00	1.500000e+00	2.600028e-03	
877	2.750000e+00	1.500000e+00	2.600968e-03	
878	2.760000e+00	1.500000e+00	2.601908e-03	
879	2.770000e+00	1.500000e+00	2.602847e-03	
880	2.780000e+00	1.500000e+00	2.603785e-03	
881	2.790000e+00	1.500000e+00	2.604724e-03	
882	2.800000e+00	1.500000e+00	2.605662e-03	
883	2.810000e+00	1.500000e+00	2.606600e-03	
884	2.820000e+00	1.500000e+00	2.607537e-03	
885	2.830000e+00	1.500000e+00	2.608474e-03	
886	2.840000e+00	1.500000e+00	2.609410e-03	
887	2.850000e+00	1.500000e+00	2.610347e-03	
888	2.860000e+00	1.500000e+00	2.611283e-03	
889	2.870000e+00	1.500000e+00	2.612218e-03	
890	2.880000e+00	1.500000e+00	2.613153e-03	
891	2.890000e+00	1.500000e+00	2.614088e-03	
892	2.900000e+00	1.500000e+00	2.615023e-03	
893	2.910000e+00	1.500000e+00	2.615957e-03	
894	2.920000e+00	1.500000e+00	2.616891e-03	
895	2.930000e+00	1.500000e+00	2.617824e-03	
896	2.940000e+00	1.500000e+00	2.618758e-03	
897	2.950000e+00	1.500000e+00	2.619691e-03	
898	2.960000e+00	1.500000e+00	2.620623e-03	
899	2.970000e+00	1.500000e+00	2.621556e-03	
900	2.980000e+00	1.500000e+00	2.622488e-03	
901	2.990000e+00	1.500000e+00	2.623419e-03	
902	3.000000e+00	1.500000e+00	2.624351e-03	
903	0.000000e+00	2.000000e+00	-1.250000e-19	
904	1.000000e-02	2.000000e+00	5.434813e-05	
905	2.000000e-02	2.000000e+00	1.083028e-04	
906	3.000000e-02	2.000000e+00	1.618647e-04	
907	4.000000e-02	2.000000e+00	2.152306e-04	
908	5.000000e-02	2.000000e+00	2.680090e-04	
909	6.000000e-02	2.000000e+00	3.203969e-04	
910	7.000000e-02	2.000000e+00	3.723951e-04	
911	8.000000e-02	2.000000e+00	4.240043e-04	
912	9.000000e-02	2.000000e+00	4.752252e-04	
913	1.000000e-01	2.000000e+00	5.260586e-04	
914	1.100000e-01	2.000000e+00	5.765052e-04	
915	1.200000e-01	2.000000e+00	6.265657e-04	
916	1.300000e-01	2.000000e+00	6.762409e-04	
917	1.400000e-01	2.000000e+00	7.255314e-04	
918	1.500000e-01	2.000000e+00	7.744380e-04	
919	1.600000e-01	2.000000e+00	8.229615e-04	
920	1.700000e-01	2.000000e+00	8.711025e-04	
921	1.800000e-01	2.000000e+00	9.188618e-04	
922	1.900000e-01	2.000000e+00	9.662400e-04	
923	2.000000e-01	2.000000e+00	1.013238e-03	
924	2.100000e-01	2.000000e+00	1.059856e-03	

Index   v-sweep         v(g)            vs#branch       
--------------------------------------------------------------------------------
925	2.200000e-01	2.000000e+00	1.106096e-03	
926	2.300000e-01	2.000000e+00	1.151957e-03	
927	2.400000e-01	2.000000e+00	1.197440e-03	
928	2.500000e-01	2.000000e+00	1.242547e-03	
929	2.600000e-01	2.000000e+00	1.287278e-03	
930	2.700000e-01	2.000000e+00	1.331633e-03	
931	2.800000e-01	2.000000e+00	1.375614e-03	
932	2.900000e-01	2.000000e+00	1.419221e-03	
933	3.000000e-01	2.000000e+00	1.462454e-03	
934	3.100000e-01	2.000000e+00	1.505315e-03	
935	3.200000e-01	2.000000e+00	1.547803e-03	
936	3.300000e-01	2.000000e+00	1.589921e-03	
937	3.400000e-01	2.000000e+00	1.631667e-03	
938	3.500000e-01	2.000000e+00	1.673044e-03	
939	3.600000e-01	2.000000e+00	1.714052e-03	
940	3.700000e-01	2.000000e+00	1.754690e-03	
941	3.800000e-01	2.000000e+00	1.794961e-03	
942	3.900000e-01	2.000000e+00	1.834865e-03	
943	4.000000e-01	2.000000e+00	1.874402e-03	
944	4.100000e-01	2.000000e+00	1.913573e-03	
945	4.200000e-01	2.000000e+00	1.952379e-03	
946	4.300000e-01	2.000000e+00	1.990820e-03	
947	4.400000e-01	2.000000e+00	2.028896e-03	
948	4.500000e-01	2.000000e+00	2.066610e-03	
949	4.600000e-01	2.000000e+00	2.103961e-03	
950	4.700000e-01	2.000000e+00	2.140949e-03	
951	4.800000e-01	2.000000e+00	2.177576e-03	
952	4.900000e-01	2.000000e+00	2.213843e-03	
953	5.000000e-01	2.000000e+00	2.249748e-03	
954	5.100000e-01	2.000000e+00	2.285295e-03	
955	5.200000e-01	2.000000e+00	2.320482e-03	
956	5.300000e-01	2.000000e+00	2.355310e-03	
957	5.400000e-01	2.000000e+00	2.389781e-03	
958	5.500000e-01	2.000000e+00	2.423895e-03	
959	5.600000e-01	2.000000e+00	2.457651e-03	
960	5.700000e-01	2.000000e+00	2.491052e-03	
961	5.800000e-01	2.000000e+00	2.524097e-03	
962	5.900000e-01	2.000000e+00	2.556787e-03	
963	6.000000e-01	2.000000e+00	2.589123e-03	
964	6.100000e-01	2.000000e+00	2.621104e-03	
965	6.200000e-01	2.000000e+00	2.652733e-03	
966	6.300000e-01	2.000000e+00	2.684008e-03	
967	6.400000e-01	2.000000e+00	2.714931e-03	
968	6.500000e-01	2.000000e+00	2.745502e-03	
969	6.600000e-01	2.000000e+00	2.775722e-03	
970	6.700000e-01	2.000000e+00	2.805591e-03	
971	6.800000e-01	2.000000e+00	2.835109e-03	
972	6.900000e-01	2.000000e+00	2.864278e-03	
973	7.000000e-01	2.000000e+00	2.893096e-03	
974	7.100000e-01	2.000000e+00	2.921566e-03	
975	7.200000e-01	2.000000e+00	2.949687e-03	
976	7.300000e-01	2.000000e+00	2.977459e-03	
977	7.400000e-01	2.000000e+00	3.004883e-03	
978	7.500000e-01	2.000000e+00	3.031959e-03	
979	7.600000e-01	2.000000e+00	3.058688e-03	
980	7.700000e-01	2.000000e+00	3.085070e-03	
981	7.800000e-01	2.000000e+00	3.111105e-03	
982	7.900000e-01	2.000000e+00	3.136792e-03	

Index   v-sweep         v(g)            vs#branch       
--------------------------------------------------------------------------------
983	8.000000e-01	2.000000e+00	3.162134e-03	
984	8.100000e-01	2.000000e+00	3.187128e-03	
985	8.200000e-01	2.000000e+00	3.211776e-03	
986	8.300000e-01	2.000000e+00	3.236078e-03	
987	8.400000e-01	2.000000e+00	3.260033e-03	
988	8.500000e-01	2.000000e+00	3.283641e-03	
989	8.600000e-01	2.000000e+00	3.306903e-03	
990	8.700000e-01	2.000000e+00	3.329818e-03	
991	8.800000e-01	2.000000e+00	3.352385e-03	
992	8.900000e-01	2.000000e+00	3.374605e-03	
993	9.000000e-01	2.000000e+00	3.396476e-03	
994	9.100000e-01	2.000000e+00	3.417999e-03	
995	9.200000e-01	2.000000e+00	3.439172e-03	
996	9.300000e-01	2.000000e+00	3.459996e-03	
997	9.400000e-01	2.000000e+00	3.480467e-03	
998	9.500000e-01	2.000000e+00	3.500587e-03	
999	9.600000e-01	2.000000e+00	3.520353e-03	
1000	9.700000e-01	2.000000e+00	3.539765e-03	
1001	9.800000e-01	2.000000e+00	3.558820e-03	
1002	9.900000e-01	2.000000e+00	3.577517e-03	
1003	1.000000e+00	2.000000e+00	3.595854e-03	
1004	1.010000e+00	2.000000e+00	3.613828e-03	
1005	1.020000e+00	2.000000e+00	3.631439e-03	
1006	1.030000e+00	2.000000e+00	3.648682e-03	
1007	1.040000e+00	2.000000e+00	3.665555e-03	
1008	1.050000e+00	2.000000e+00	3.682056e-03	
1009	1.060000e+00	2.000000e+00	3.698180e-03	
1010	1.070000e+00	2.000000e+00	3.713925e-03	
1011	1.080000e+00	2.000000e+00	3.729288e-03	
1012	1.090000e+00	2.000000e+00	3.744263e-03	
1013	1.100000e+00	2.000000e+00	3.758847e-03	
1014	1.110000e+00	2.000000e+00	3.773037e-03	
1015	1.120000e+00	2.000000e+00	3.786829e-03	
1016	1.130000e+00	2.000000e+00	3.800218e-03	
1017	1.140000e+00	2.000000e+00	3.813201e-03	
1018	1.150000e+00	2.000000e+00	3.825775e-03	
1019	1.160000e+00	2.000000e+00	3.837937e-03	
1020	1.170000e+00	2.000000e+00	3.849685e-03	
1021	1.180000e+00	2.000000e+00	3.861018e-03	
1022	1.190000e+00	2.000000e+00	3.871935e-03	
1023	1.200000e+00	2.000000e+00	3.882437e-03	
1024	1.210000e+00	2.000000e+00	3.892525e-03	
1025	1.220000e+00	2.000000e+00	3.902204e-03	
1026	1.230000e+00	2.000000e+00	3.911478e-03	
1027	1.240000e+00	2.000000e+00	3.920353e-03	
1028	1.250000e+00	2.000000e+00	3.928836e-03	
1029	1.260000e+00	2.000000e+00	3.936937e-03	
1030	1.270000e+00	2.000000e+00	3.944666e-03	
1031	1.280000e+00	2.000000e+00	3.952035e-03	
1032	1.290000e+00	2.000000e+00	3.959057e-03	
1033	1.300000e+00	2.000000e+00	3.965744e-03	
1034	1.310000e+00	2.000000e+00	3.972112e-03	
1035	1.320000e+00	2.000000e+00	3.978175e-03	
1036	1.330000e+00	2.000000e+00	3.983947e-03	
1037	1.340000e+00	2.000000e+00	3.989444e-03	
1038	1.350000e+00	2.000000e+00	3.994681e-03	
1039	1.360000e+00	2.000000e+00	3.999671e-03	
1040	1.370000e+00	2.000000e+00	4.004431e-03	

Index   v-sweep         v(g)            vs#branch       
--------------------------------------------------------------------------------
1041	1.380000e+00	2.000000e+00	4.008973e-03	
1042	1.390000e+00	2.000000e+00	4.013310e-03	
1043	1.400000e+00	2.000000e+00	4.017456e-03	
1044	1.410000e+00	2.000000e+00	4.021422e-03	
1045	1.420000e+00	2.000000e+00	4.025220e-03	
1046	1.430000e+00	2.000000e+00	4.028861e-03	
1047	1.440000e+00	2.000000e+00	4.032355e-03	
1048	1.450000e+00	2.000000e+00	4.035711e-03	
1049	1.460000e+00	2.000000e+00	4.038938e-03	
1050	1.470000e+00	2.000000e+00	4.042045e-03	
1051	1.480000e+00	2.000000e+00	4.045039e-03	
1052	1.490000e+00	2.000000e+00	4.047928e-03	
1053	1.500000e+00	2.000000e+00	4.050719e-03	
1054	1.510000e+00	2.000000e+00	4.053417e-03	
1055	1.520000e+00	2.000000e+00	4.056028e-03	
1056	1.530000e+00	2.000000e+00	4.058558e-03	
1057	1.540000e+00	2.000000e+00	4.061012e-03	
1058	1.550000e+00	2.000000e+00	4.063394e-03	
1059	1.560000e+00	2.000000e+00	4.065710e-03	
1060	1.570000e+00	2.000000e+00	4.067962e-03	
1061	1.580000e+00	2.000000e+00	4.070154e-03	
1062	1.590000e+00	2.000000e+00	4.072291e-03	
1063	1.600000e+00	2.000000e+00	4.074375e-03	
1064	1.610000e+00	2.000000e+00	4.076409e-03	
1065	1.620000e+00	2.000000e+00	4.078396e-03	
1066	1.630000e+00	2.000000e+00	4.080339e-03	
1067	1.640000e+00	2.000000e+00	4.082241e-03	
1068	1.650000e+00	2.000000e+00	4.084102e-03	
1069	1.660000e+00	2.000000e+00	4.085926e-03	
1070	1.670000e+00	2.000000e+00	4.087715e-03	
1071	1.680000e+00	2.000000e+00	4.089470e-03	
1072	1.690000e+00	2.000000e+00	4.091193e-03	
1073	1.700000e+00	2.000000e+00	4.092886e-03	
1074	1.710000e+00	2.000000e+00	4.094550e-03	
1075	1.720000e+00	2.000000e+00	4.096186e-03	
1076	1.730000e+00	2.000000e+00	4.097797e-03	
1077	1.740000e+00	2.000000e+00	4.099383e-03	
1078	1.750000e+00	2.000000e+00	4.100945e-03	
1079	1.760000e+00	2.000000e+00	4.102485e-03	
1080	1.770000e+00	2.000000e+00	4.104004e-03	
1081	1.780000e+00	2.000000e+00	4.105502e-03	
1082	1.790000e+00	2.000000e+00	4.106980e-03	
1083	1.800000e+00	2.000000e+00	4.108440e-03	
1084	1.810000e+00	2.000000e+00	4.109882e-03	
1085	1.820000e+00	2.000000e+00	4.111307e-03	
1086	1.830000e+00	2.000000e+00	4.112715e-03	
1087	1.840000e+00	2.000000e+00	4.114109e-03	
1088	1.850000e+00	2.000000e+00	4.115487e-03	
1089	1.860000e+00	2.000000e+00	4.116850e-03	
1090	1.870000e+00	2.000000e+00	4.118200e-03	
1091	1.880000e+00	2.000000e+00	4.119537e-03	
1092	1.890000e+00	2.000000e+00	4.120861e-03	
1093	1.900000e+00	2.000000e+00	4.122173e-03	
1094	1.910000e+00	2.000000e+00	4.123473e-03	
1095	1.920000e+00	2.000000e+00	4.124762e-03	
1096	1.930000e+00	2.000000e+00	4.126040e-03	
1097	1.940000e+00	2.000000e+00	4.127308e-03	
1098	1.950000e+00	2.000000e+00	4.128566e-03	

Index   v-sweep         v(g)            vs#branch       
--------------------------------------------------------------------------------
1099	1.960000e+00	2.000000e+00	4.129814e-03	
1100	1.970000e+00	2.000000e+00	4.131052e-03	
1101	1.980000e+00	2.000000e+00	4.132282e-03	
1102	1.990000e+00	2.000000e+00	4.133503e-03	
1103	2.000000e+00	2.000000e+00	4.134716e-03	
1104	2.010000e+00	2.000000e+00	4.135921e-03	
1105	2.020000e+00	2.000000e+00	4.137118e-03	
1106	2.030000e+00	2.000000e+00	4.138307e-03	
1107	2.040000e+00	2.000000e+00	4.139489e-03	
1108	2.050000e+00	2.000000e+00	4.140664e-03	
1109	2.060000e+00	2.000000e+00	4.141833e-03	
1110	2.070000e+00	2.000000e+00	4.142994e-03	
1111	2.080000e+00	2.000000e+00	4.144150e-03	
1112	2.090000e+00	2.000000e+00	4.145299e-03	
1113	2.100000e+00	2.000000e+00	4.146443e-03	
1114	2.110000e+00	2.000000e+00	4.147580e-03	
1115	2.120000e+00	2.000000e+00	4.148712e-03	
1116	2.130000e+00	2.000000e+00	4.149839e-03	
1117	2.140000e+00	2.000000e+00	4.150960e-03	
1118	2.150000e+00	2.000000e+00	4.152076e-03	
1119	2.160000e+00	2.000000e+00	4.153188e-03	
1120	2.170000e+00	2.000000e+00	4.154294e-03	
1121	2.180000e+00	2.000000e+00	4.155396e-03	
1122	2.190000e+00	2.000000e+00	4.156494e-03	
1123	2.200000e+00	2.000000e+00	4.157587e-03	
1124	2.210000e+00	2.000000e+00	4.158675e-03	
1125	2.220000e+00	2.000000e+00	4.159760e-03	
1126	2.230000e+00	2.000000e+00	4.160841e-03	
1127	2.240000e+00	2.000000e+00	4.161917e-03	
1128	2.250000e+00	2.000000e+00	4.162990e-03	
1129	2.260000e+00	2.000000e+00	4.164059e-03	
1130	2.270000e+00	2.000000e+00	4.165125e-03	
1131	2.280000e+00	2.000000e+00	4.166187e-03	
1132	2.290000e+00	2.000000e+00	4.167246e-03	
1133	2.300000e+00	2.000000e+00	4.168301e-03	
1134	2.310000e+00	2.000000e+00	4.169353e-03	
1135	2.320000e+00	2.000000e+00	4.170402e-03	
1136	2.330000e+00	2.000000e+00	4.171448e-03	
1137	2.340000e+00	2.000000e+00	4.172491e-03	
1138	2.350000e+00	2.000000e+00	4.173531e-03	
1139	2.360000e+00	2.000000e+00	4.174569e-03	
1140	2.370000e+00	2.000000e+00	4.175603e-03	
1141	2.380000e+00	2.000000e+00	4.176635e-03	
1142	2.390000e+00	2.000000e+00	4.177664e-03	
1143	2.400000e+00	2.000000e+00	4.178690e-03	
1144	2.410000e+00	2.000000e+00	4.179714e-03	
1145	2.420000e+00	2.000000e+00	4.180736e-03	
1146	2.430000e+00	2.000000e+00	4.181755e-03	
1147	2.440000e+00	2.000000e+00	4.182772e-03	
1148	2.450000e+00	2.000000e+00	4.183787e-03	
1149	2.460000e+00	2.000000e+00	4.184799e-03	
1150	2.470000e+00	2.000000e+00	4.185809e-03	
1151	2.480000e+00	2.000000e+00	4.186817e-03	
1152	2.490000e+00	2.000000e+00	4.187823e-03	
1153	2.500000e+00	2.000000e+00	4.188827e-03	
1154	2.510000e+00	2.000000e+00	4.189829e-03	
1155	2.520000e+00	2.000000e+00	4.190829e-03	
1156	2.530000e+00	2.000000e+00	4.191827e-03	

Index   v-sweep         v(g)            vs#branch       
--------------------------------------------------------------------------------
1157	2.540000e+00	2.000000e+00	4.192824e-03	
1158	2.550000e+00	2.000000e+00	4.193818e-03	
1159	2.560000e+00	2.000000e+00	4.194811e-03	
1160	2.570000e+00	2.000000e+00	4.195802e-03	
1161	2.580000e+00	2.000000e+00	4.196791e-03	
1162	2.590000e+00	2.000000e+00	4.197779e-03	
1163	2.600000e+00	2.000000e+00	4.198765e-03	
1164	2.610000e+00	2.000000e+00	4.199749e-03	
1165	2.620000e+00	2.000000e+00	4.200732e-03	
1166	2.630000e+00	2.000000e+00	4.201713e-03	
1167	2.640000e+00	2.000000e+00	4.202693e-03	
1168	2.650000e+00	2.000000e+00	4.203671e-03	
1169	2.660000e+00	2.000000e+00	4.204648e-03	
1170	2.670000e+00	2.000000e+00	4.205623e-03	
1171	2.680000e+00	2.000000e+00	4.206597e-03	
1172	2.690000e+00	2.000000e+00	4.207570e-03	
1173	2.700000e+00	2.000000e+00	4.208541e-03	
1174	2.710000e+00	2.000000e+00	4.209511e-03	
1175	2.720000e+00	2.000000e+00	4.210480e-03	
1176	2.730000e+00	2.000000e+00	4.211448e-03	
1177	2.740000e+00	2.000000e+00	4.212414e-03	
1178	2.750000e+00	2.000000e+00	4.213379e-03	
1179	2.760000e+00	2.000000e+00	4.214343e-03	
1180	2.770000e+00	2.000000e+00	4.215306e-03	
1181	2.780000e+00	2.000000e+00	4.216267e-03	
1182	2.790000e+00	2.000000e+00	4.217228e-03	
1183	2.800000e+00	2.000000e+00	4.218187e-03	
1184	2.810000e+00	2.000000e+00	4.219145e-03	
1185	2.820000e+00	2.000000e+00	4.220102e-03	
1186	2.830000e+00	2.000000e+00	4.221059e-03	
1187	2.840000e+00	2.000000e+00	4.222014e-03	
1188	2.850000e+00	2.000000e+00	4.222968e-03	
1189	2.860000e+00	2.000000e+00	4.223921e-03	
1190	2.870000e+00	2.000000e+00	4.224873e-03	
1191	2.880000e+00	2.000000e+00	4.225825e-03	
1192	2.890000e+00	2.000000e+00	4.226775e-03	
1193	2.900000e+00	2.000000e+00	4.227724e-03	
1194	2.910000e+00	2.000000e+00	4.228673e-03	
1195	2.920000e+00	2.000000e+00	4.229620e-03	
1196	2.930000e+00	2.000000e+00	4.230567e-03	
1197	2.940000e+00	2.000000e+00	4.231513e-03	
1198	2.950000e+00	2.000000e+00	4.232458e-03	
1199	2.960000e+00	2.000000e+00	4.233402e-03	
1200	2.970000e+00	2.000000e+00	4.234345e-03	
1201	2.980000e+00	2.000000e+00	4.235288e-03	
1202	2.990000e+00	2.000000e+00	4.236230e-03	
1203	3.000000e+00	2.000000e+00	4.237171e-03	
1204	0.000000e+00	2.500000e+00	-1.250000e-19	
1205	1.000000e-02	2.500000e+00	5.937829e-05	
1206	2.000000e-02	2.500000e+00	1.184251e-04	
1207	3.000000e-02	2.500000e+00	1.773062e-04	
1208	4.000000e-02	2.500000e+00	2.356913e-04	
1209	5.000000e-02	2.500000e+00	2.937463e-04	
1210	6.000000e-02	2.500000e+00	3.514719e-04	
1211	7.000000e-02	2.500000e+00	4.088685e-04	
1212	8.000000e-02	2.500000e+00	4.659367e-04	
1213	9.000000e-02	2.500000e+00	5.226769e-04	
1214	1.000000e-01	2.500000e+00	5.790896e-04	

Index   v-sweep         v(g)            vs#branch       
--------------------------------------------------------------------------------
1215	1.100000e-01	2.500000e+00	6.351755e-04	
1216	1.200000e-01	2.500000e+00	6.909349e-04	
1217	1.300000e-01	2.500000e+00	7.463683e-04	
1218	1.400000e-01	2.500000e+00	8.014764e-04	
1219	1.500000e-01	2.500000e+00	8.562595e-04	
1220	1.600000e-01	2.500000e+00	9.107181e-04	
1221	1.700000e-01	2.500000e+00	9.648528e-04	
1222	1.800000e-01	2.500000e+00	1.018664e-03	
1223	1.900000e-01	2.500000e+00	1.072152e-03	
1224	2.000000e-01	2.500000e+00	1.125318e-03	
1225	2.100000e-01	2.500000e+00	1.178162e-03	
1226	2.200000e-01	2.500000e+00	1.230685e-03	
1227	2.300000e-01	2.500000e+00	1.282886e-03	
1228	2.400000e-01	2.500000e+00	1.334767e-03	
1229	2.500000e-01	2.500000e+00	1.386328e-03	
1230	2.600000e-01	2.500000e+00	1.437569e-03	
1231	2.700000e-01	2.500000e+00	1.488492e-03	
1232	2.800000e-01	2.500000e+00	1.539095e-03	
1233	2.900000e-01	2.500000e+00	1.589381e-03	
1234	3.000000e-01	2.500000e+00	1.639349e-03	
1235	3.100000e-01	2.500000e+00	1.689000e-03	
1236	3.200000e-01	2.500000e+00	1.738335e-03	
1237	3.300000e-01	2.500000e+00	1.787353e-03	
1238	3.400000e-01	2.500000e+00	1.836055e-03	
1239	3.500000e-01	2.500000e+00	1.884443e-03	
1240	3.600000e-01	2.500000e+00	1.932515e-03	
1241	3.700000e-01	2.500000e+00	1.980273e-03	
1242	3.800000e-01	2.500000e+00	2.027718e-03	
1243	3.900000e-01	2.500000e+00	2.074849e-03	
1244	4.000000e-01	2.500000e+00	2.121667e-03	
1245	4.100000e-01	2.500000e+00	2.168173e-03	
1246	4.200000e-01	2.500000e+00	2.214367e-03	
1247	4.300000e-01	2.500000e+00	2.260250e-03	
1248	4.400000e-01	2.500000e+00	2.305821e-03	
1249	4.500000e-01	2.500000e+00	2.351082e-03	
1250	4.600000e-01	2.500000e+00	2.396033e-03	
1251	4.700000e-01	2.500000e+00	2.440674e-03	
1252	4.800000e-01	2.500000e+00	2.485006e-03	
1253	4.900000e-01	2.500000e+00	2.529029e-03	
1254	5.000000e-01	2.500000e+00	2.572744e-03	
1255	5.100000e-01	2.500000e+00	2.616152e-03	
1256	5.200000e-01	2.500000e+00	2.659251e-03	
1257	5.300000e-01	2.500000e+00	2.702044e-03	
1258	5.400000e-01	2.500000e+00	2.744530e-03	
1259	5.500000e-01	2.500000e+00	2.786711e-03	
1260	5.600000e-01	2.500000e+00	2.828585e-03	
1261	5.700000e-01	2.500000e+00	2.870155e-03	
1262	5.800000e-01	2.500000e+00	2.911420e-03	
1263	5.900000e-01	2.500000e+00	2.952380e-03	
1264	6.000000e-01	2.500000e+00	2.993037e-03	
1265	6.100000e-01	2.500000e+00	3.033390e-03	
1266	6.200000e-01	2.500000e+00	3.073440e-03	
1267	6.300000e-01	2.500000e+00	3.113187e-03	
1268	6.400000e-01	2.500000e+00	3.152633e-03	
1269	6.500000e-01	2.500000e+00	3.191776e-03	
1270	6.600000e-01	2.500000e+00	3.230619e-03	
1271	6.700000e-01	2.500000e+00	3.269160e-03	
1272	6.800000e-01	2.500000e+00	3.307401e-03	

Index   v-sweep         v(g)            vs#branch       
--------------------------------------------------------------------------------
1273	6.900000e-01	2.500000e+00	3.345341e-03	
1274	7.000000e-01	2.500000e+00	3.382982e-03	
1275	7.100000e-01	2.500000e+00	3.420324e-03	
1276	7.200000e-01	2.500000e+00	3.457367e-03	
1277	7.300000e-01	2.500000e+00	3.494111e-03	
1278	7.400000e-01	2.500000e+00	3.530557e-03	
1279	7.500000e-01	2.500000e+00	3.566705e-03	
1280	7.600000e-01	2.500000e+00	3.602556e-03	
1281	7.700000e-01	2.500000e+00	3.638110e-03	
1282	7.800000e-01	2.500000e+00	3.673368e-03	
1283	7.900000e-01	2.500000e+00	3.708329e-03	
1284	8.000000e-01	2.500000e+00	3.742994e-03	
1285	8.100000e-01	2.500000e+00	3.777363e-03	
1286	8.200000e-01	2.500000e+00	3.811438e-03	
1287	8.300000e-01	2.500000e+00	3.845218e-03	
1288	8.400000e-01	2.500000e+00	3.878703e-03	
1289	8.500000e-01	2.500000e+00	3.911893e-03	
1290	8.600000e-01	2.500000e+00	3.944790e-03	
1291	8.700000e-01	2.500000e+00	3.977394e-03	
1292	8.800000e-01	2.500000e+00	4.009704e-03	
1293	8.900000e-01	2.500000e+00	4.041721e-03	
1294	9.000000e-01	2.500000e+00	4.073446e-03	
1295	9.100000e-01	2.500000e+00	4.104878e-03	
1296	9.200000e-01	2.500000e+00	4.136018e-03	
1297	9.300000e-01	2.500000e+00	4.166866e-03	
1298	9.400000e-01	2.500000e+00	4.197423e-03	
1299	9.500000e-01	2.500000e+00	4.227688e-03	
1300	9.600000e-01	2.500000e+00	4.257662e-03	
1301	9.700000e-01	2.500000e+00	4.287345e-03	
1302	9.800000e-01	2.500000e+00	4.316737e-03	
1303	9.900000e-01	2.500000e+00	4.345838e-03	
1304	1.000000e+00	2.500000e+00	4.374649e-03	
1305	1.010000e+00	2.500000e+00	4.403170e-03	
1306	1.020000e+00	2.500000e+00	4.431400e-03	
1307	1.030000e+00	2.500000e+00	4.459340e-03	
1308	1.040000e+00	2.500000e+00	4.486990e-03	
1309	1.050000e+00	2.500000e+00	4.514350e-03	
1310	1.060000e+00	2.500000e+00	4.541419e-03	
1311	1.070000e+00	2.500000e+00	4.568199e-03	
1312	1.080000e+00	2.500000e+00	4.594688e-03	
1313	1.090000e+00	2.500000e+00	4.620887e-03	
1314	1.100000e+00	2.500000e+00	4.646796e-03	
1315	1.110000e+00	2.500000e+00	4.672414e-03	
1316	1.120000e+00	2.500000e+00	4.697741e-03	
1317	1.130000e+00	2.500000e+00	4.722777e-03	
1318	1.140000e+00	2.500000e+00	4.747521e-03	
1319	1.150000e+00	2.500000e+00	4.771974e-03	
1320	1.160000e+00	2.500000e+00	4.796134e-03	
1321	1.170000e+00	2.500000e+00	4.820002e-03	
1322	1.180000e+00	2.500000e+00	4.843576e-03	
1323	1.190000e+00	2.500000e+00	4.866856e-03	
1324	1.200000e+00	2.500000e+00	4.889841e-03	
1325	1.210000e+00	2.500000e+00	4.912530e-03	
1326	1.220000e+00	2.500000e+00	4.934923e-03	
1327	1.230000e+00	2.500000e+00	4.957018e-03	
1328	1.240000e+00	2.500000e+00	4.978814e-03	
1329	1.250000e+00	2.500000e+00	5.000310e-03	
1330	1.260000e+00	2.500000e+00	5.021504e-03	

Index   v-sweep         v(g)            vs#branch       
--------------------------------------------------------------------------------
1331	1.270000e+00	2.500000e+00	5.042396e-03	
1332	1.280000e+00	2.500000e+00	5.062982e-03	
1333	1.290000e+00	2.500000e+00	5.083262e-03	
1334	1.300000e+00	2.500000e+00	5.103232e-03	
1335	1.310000e+00	2.500000e+00	5.122892e-03	
1336	1.320000e+00	2.500000e+00	5.142238e-03	
1337	1.330000e+00	2.500000e+00	5.161268e-03	
1338	1.340000e+00	2.500000e+00	5.179980e-03	
1339	1.350000e+00	2.500000e+00	5.198369e-03	
1340	1.360000e+00	2.500000e+00	5.216433e-03	
1341	1.370000e+00	2.500000e+00	5.234168e-03	
1342	1.380000e+00	2.500000e+00	5.251570e-03	
1343	1.390000e+00	2.500000e+00	5.268636e-03	
1344	1.400000e+00	2.500000e+00	5.285362e-03	
1345	1.410000e+00	2.500000e+00	5.301743e-03	
1346	1.420000e+00	2.500000e+00	5.317774e-03	
1347	1.430000e+00	2.500000e+00	5.333451e-03	
1348	1.440000e+00	2.500000e+00	5.348770e-03	
1349	1.450000e+00	2.500000e+00	5.363726e-03	
1350	1.460000e+00	2.500000e+00	5.378313e-03	
1351	1.470000e+00	2.500000e+00	5.392527e-03	
1352	1.480000e+00	2.500000e+00	5.406365e-03	
1353	1.490000e+00	2.500000e+00	5.419822e-03	
1354	1.500000e+00	2.500000e+00	5.432893e-03	
1355	1.510000e+00	2.500000e+00	5.445577e-03	
1356	1.520000e+00	2.500000e+00	5.457871e-03	
1357	1.530000e+00	2.500000e+00	5.469772e-03	
1358	1.540000e+00	2.500000e+00	5.481280e-03	
1359	1.550000e+00	2.500000e+00	5.492395e-03	
1360	1.560000e+00	2.500000e+00	5.503118e-03	
1361	1.570000e+00	2.500000e+00	5.513452e-03	
1362	1.580000e+00	2.500000e+00	5.523400e-03	
1363	1.590000e+00	2.500000e+00	5.532967e-03	
1364	1.600000e+00	2.500000e+00	5.542159e-03	
1365	1.610000e+00	2.500000e+00	5.550982e-03	
1366	1.620000e+00	2.500000e+00	5.559446e-03	
1367	1.630000e+00	2.500000e+00	5.567559e-03	
1368	1.640000e+00	2.500000e+00	5.575331e-03	
1369	1.650000e+00	2.500000e+00	5.582774e-03	
1370	1.660000e+00	2.500000e+00	5.589899e-03	
1371	1.670000e+00	2.500000e+00	5.596718e-03	
1372	1.680000e+00	2.500000e+00	5.603244e-03	
1373	1.690000e+00	2.500000e+00	5.609489e-03	
1374	1.700000e+00	2.500000e+00	5.615465e-03	
1375	1.710000e+00	2.500000e+00	5.621186e-03	
1376	1.720000e+00	2.500000e+00	5.626664e-03	
1377	1.730000e+00	2.500000e+00	5.631911e-03	
1378	1.740000e+00	2.500000e+00	5.636939e-03	
1379	1.750000e+00	2.500000e+00	5.641760e-03	
1380	1.760000e+00	2.500000e+00	5.646386e-03	
1381	1.770000e+00	2.500000e+00	5.650826e-03	
1382	1.780000e+00	2.500000e+00	5.655092e-03	
1383	1.790000e+00	2.500000e+00	5.659193e-03	
1384	1.800000e+00	2.500000e+00	5.663139e-03	
1385	1.810000e+00	2.500000e+00	5.666938e-03	
1386	1.820000e+00	2.500000e+00	5.670598e-03	
1387	1.830000e+00	2.500000e+00	5.674129e-03	
1388	1.840000e+00	2.500000e+00	5.677537e-03	

Index   v-sweep         v(g)            vs#branch       
--------------------------------------------------------------------------------
1389	1.850000e+00	2.500000e+00	5.680829e-03	
1390	1.860000e+00	2.500000e+00	5.684011e-03	
1391	1.870000e+00	2.500000e+00	5.687091e-03	
1392	1.880000e+00	2.500000e+00	5.690074e-03	
1393	1.890000e+00	2.500000e+00	5.692965e-03	
1394	1.900000e+00	2.500000e+00	5.695770e-03	
1395	1.910000e+00	2.500000e+00	5.698493e-03	
1396	1.920000e+00	2.500000e+00	5.701139e-03	
1397	1.930000e+00	2.500000e+00	5.703712e-03	
1398	1.940000e+00	2.500000e+00	5.706215e-03	
1399	1.950000e+00	2.500000e+00	5.708654e-03	
1400	1.960000e+00	2.500000e+00	5.711030e-03	
1401	1.970000e+00	2.500000e+00	5.713348e-03	
1402	1.980000e+00	2.500000e+00	5.715611e-03	
1403	1.990000e+00	2.500000e+00	5.717820e-03	
1404	2.000000e+00	2.500000e+00	5.719980e-03	
1405	2.010000e+00	2.500000e+00	5.722092e-03	
1406	2.020000e+00	2.500000e+00	5.724159e-03	
1407	2.030000e+00	2.500000e+00	5.726184e-03	
1408	2.040000e+00	2.500000e+00	5.728167e-03	
1409	2.050000e+00	2.500000e+00	5.730111e-03	
1410	2.060000e+00	2.500000e+00	5.732019e-03	
1411	2.070000e+00	2.500000e+00	5.733891e-03	
1412	2.080000e+00	2.500000e+00	5.735730e-03	
1413	2.090000e+00	2.500000e+00	5.737537e-03	
1414	2.100000e+00	2.500000e+00	5.739313e-03	
1415	2.110000e+00	2.500000e+00	5.741059e-03	
1416	2.120000e+00	2.500000e+00	5.742778e-03	
1417	2.130000e+00	2.500000e+00	5.744470e-03	
1418	2.140000e+00	2.500000e+00	5.746137e-03	
1419	2.150000e+00	2.500000e+00	5.747779e-03	
1420	2.160000e+00	2.500000e+00	5.749398e-03	
1421	2.170000e+00	2.500000e+00	5.750994e-03	
1422	2.180000e+00	2.500000e+00	5.752569e-03	
1423	2.190000e+00	2.500000e+00	5.754123e-03	
1424	2.200000e+00	2.500000e+00	5.755658e-03	
1425	2.210000e+00	2.500000e+00	5.757173e-03	
1426	2.220000e+00	2.500000e+00	5.758670e-03	
1427	2.230000e+00	2.500000e+00	5.760150e-03	
1428	2.240000e+00	2.500000e+00	5.761613e-03	
1429	2.250000e+00	2.500000e+00	5.763059e-03	
1430	2.260000e+00	2.500000e+00	5.764490e-03	
1431	2.270000e+00	2.500000e+00	5.765906e-03	
1432	2.280000e+00	2.500000e+00	5.767308e-03	
1433	2.290000e+00	2.500000e+00	5.768696e-03	
1434	2.300000e+00	2.500000e+00	5.770070e-03	
1435	2.310000e+00	2.500000e+00	5.771431e-03	
1436	2.320000e+00	2.500000e+00	5.772780e-03	
1437	2.330000e+00	2.500000e+00	5.774117e-03	
1438	2.340000e+00	2.500000e+00	5.775442e-03	
1439	2.350000e+00	2.500000e+00	5.776756e-03	
1440	2.360000e+00	2.500000e+00	5.778059e-03	
1441	2.370000e+00	2.500000e+00	5.779352e-03	
1442	2.380000e+00	2.500000e+00	5.780634e-03	
1443	2.390000e+00	2.500000e+00	5.781907e-03	
1444	2.400000e+00	2.500000e+00	5.783170e-03	
1445	2.410000e+00	2.500000e+00	5.784425e-03	
1446	2.420000e+00	2.500000e+00	5.785670e-03	

Index   v-sweep         v(g)            vs#branch       
--------------------------------------------------------------------------------
1447	2.430000e+00	2.500000e+00	5.786907e-03	
1448	2.440000e+00	2.500000e+00	5.788135e-03	
1449	2.450000e+00	2.500000e+00	5.789355e-03	
1450	2.460000e+00	2.500000e+00	5.790568e-03	
1451	2.470000e+00	2.500000e+00	5.791773e-03	
1452	2.480000e+00	2.500000e+00	5.792971e-03	
1453	2.490000e+00	2.500000e+00	5.794161e-03	
1454	2.500000e+00	2.500000e+00	5.795345e-03	
1455	2.510000e+00	2.500000e+00	5.796522e-03	
1456	2.520000e+00	2.500000e+00	5.797692e-03	
1457	2.530000e+00	2.500000e+00	5.798856e-03	
1458	2.540000e+00	2.500000e+00	5.800014e-03	
1459	2.550000e+00	2.500000e+00	5.801166e-03	
1460	2.560000e+00	2.500000e+00	5.802313e-03	
1461	2.570000e+00	2.500000e+00	5.803453e-03	
1462	2.580000e+00	2.500000e+00	5.804588e-03	
1463	2.590000e+00	2.500000e+00	5.805718e-03	
1464	2.600000e+00	2.500000e+00	5.806843e-03	
1465	2.610000e+00	2.500000e+00	5.807962e-03	
1466	2.620000e+00	2.500000e+00	5.809077e-03	
1467	2.630000e+00	2.500000e+00	5.810187e-03	
1468	2.640000e+00	2.500000e+00	5.811292e-03	
1469	2.650000e+00	2.500000e+00	5.812393e-03	
1470	2.660000e+00	2.500000e+00	5.813489e-03	
1471	2.670000e+00	2.500000e+00	5.814581e-03	
1472	2.680000e+00	2.500000e+00	5.815669e-03	
1473	2.690000e+00	2.500000e+00	5.816753e-03	
1474	2.700000e+00	2.500000e+00	5.817832e-03	
1475	2.710000e+00	2.500000e+00	5.818908e-03	
1476	2.720000e+00	2.500000e+00	5.819980e-03	
1477	2.730000e+00	2.500000e+00	5.821049e-03	
1478	2.740000e+00	2.500000e+00	5.822113e-03	
1479	2.750000e+00	2.500000e+00	5.823175e-03	
1480	2.760000e+00	2.500000e+00	5.824232e-03	
1481	2.770000e+00	2.500000e+00	5.825287e-03	
1482	2.780000e+00	2.500000e+00	5.826338e-03	
1483	2.790000e+00	2.500000e+00	5.827386e-03	
1484	2.800000e+00	2.500000e+00	5.828431e-03	
1485	2.810000e+00	2.500000e+00	5.829473e-03	
1486	2.820000e+00	2.500000e+00	5.830511e-03	
1487	2.830000e+00	2.500000e+00	5.831547e-03	
1488	2.840000e+00	2.500000e+00	5.832580e-03	
1489	2.850000e+00	2.500000e+00	5.833611e-03	
1490	2.860000e+00	2.500000e+00	5.834638e-03	
1491	2.870000e+00	2.500000e+00	5.835663e-03	
1492	2.880000e+00	2.500000e+00	5.836685e-03	
1493	2.890000e+00	2.500000e+00	5.837705e-03	
1494	2.900000e+00	2.500000e+00	5.838722e-03	
1495	2.910000e+00	2.500000e+00	5.839737e-03	
1496	2.920000e+00	2.500000e+00	5.840749e-03	
1497	2.930000e+00	2.500000e+00	5.841759e-03	
1498	2.940000e+00	2.500000e+00	5.842767e-03	
1499	2.950000e+00	2.500000e+00	5.843773e-03	
1500	2.960000e+00	2.500000e+00	5.844776e-03	
1501	2.970000e+00	2.500000e+00	5.845777e-03	
1502	2.980000e+00	2.500000e+00	5.846776e-03	
1503	2.990000e+00	2.500000e+00	5.847773e-03	
1504	3.000000e+00	2.500000e+00	5.848768e-03	

Index   v-sweep         v(g)            vs#branch       
--------------------------------------------------------------------------------
1505	0.000000e+00	3.000000e+00	-1.250000e-19	
1506	1.000000e-02	3.000000e+00	6.224150e-05	
1507	2.000000e-02	3.000000e+00	1.241998e-04	
1508	3.000000e-02	3.000000e+00	1.860167e-04	
1509	4.000000e-02	3.000000e+00	2.474097e-04	
1510	5.000000e-02	3.000000e+00	3.085206e-04	
1511	6.000000e-02	3.000000e+00	3.693498e-04	
1512	7.000000e-02	3.000000e+00	4.298976e-04	
1513	8.000000e-02	3.000000e+00	4.901645e-04	
1514	9.000000e-02	3.000000e+00	5.501508e-04	
1515	1.000000e-01	3.000000e+00	6.098569e-04	
1516	1.100000e-01	3.000000e+00	6.692831e-04	
1517	1.200000e-01	3.000000e+00	7.284297e-04	
1518	1.300000e-01	3.000000e+00	7.872972e-04	
1519	1.400000e-01	3.000000e+00	8.458860e-04	
1520	1.500000e-01	3.000000e+00	9.041962e-04	
1521	1.600000e-01	3.000000e+00	9.622284e-04	
1522	1.700000e-01	3.000000e+00	1.019983e-03	
1523	1.800000e-01	3.000000e+00	1.077460e-03	
1524	1.900000e-01	3.000000e+00	1.134660e-03	
1525	2.000000e-01	3.000000e+00	1.191584e-03	
1526	2.100000e-01	3.000000e+00	1.248231e-03	
1527	2.200000e-01	3.000000e+00	1.304602e-03	
1528	2.300000e-01	3.000000e+00	1.360698e-03	
1529	2.400000e-01	3.000000e+00	1.416518e-03	
1530	2.500000e-01	3.000000e+00	1.472063e-03	
1531	2.600000e-01	3.000000e+00	1.527334e-03	
1532	2.700000e-01	3.000000e+00	1.582331e-03	
1533	2.800000e-01	3.000000e+00	1.637054e-03	
1534	2.900000e-01	3.000000e+00	1.691503e-03	
1535	3.000000e-01	3.000000e+00	1.745680e-03	
1536	3.100000e-01	3.000000e+00	1.799583e-03	
1537	3.200000e-01	3.000000e+00	1.853214e-03	
1538	3.300000e-01	3.000000e+00	1.906573e-03	
1539	3.400000e-01	3.000000e+00	1.959661e-03	
1540	3.500000e-01	3.000000e+00	2.012476e-03	
1541	3.600000e-01	3.000000e+00	2.065021e-03	
1542	3.700000e-01	3.000000e+00	2.117295e-03	
1543	3.800000e-01	3.000000e+00	2.169299e-03	
1544	3.900000e-01	3.000000e+00	2.221033e-03	
1545	4.000000e-01	3.000000e+00	2.272496e-03	
1546	4.100000e-01	3.000000e+00	2.323691e-03	
1547	4.200000e-01	3.000000e+00	2.374617e-03	
1548	4.300000e-01	3.000000e+00	2.425273e-03	
1549	4.400000e-01	3.000000e+00	2.475662e-03	
1550	4.500000e-01	3.000000e+00	2.525783e-03	
1551	4.600000e-01	3.000000e+00	2.575635e-03	
1552	4.700000e-01	3.000000e+00	2.625221e-03	
1553	4.800000e-01	3.000000e+00	2.674540e-03	
1554	4.900000e-01	3.000000e+00	2.723592e-03	
1555	5.000000e-01	3.000000e+00	2.772377e-03	
1556	5.100000e-01	3.000000e+00	2.820897e-03	
1557	5.200000e-01	3.000000e+00	2.869151e-03	
1558	5.300000e-01	3.000000e+00	2.917139e-03	
1559	5.400000e-01	3.000000e+00	2.964863e-03	
1560	5.500000e-01	3.000000e+00	3.012322e-03	
1561	5.600000e-01	3.000000e+00	3.059516e-03	
1562	5.700000e-01	3.000000e+00	3.106447e-03	

Index   v-sweep         v(g)            vs#branch       
--------------------------------------------------------------------------------
1563	5.800000e-01	3.000000e+00	3.153114e-03	
1564	5.900000e-01	3.000000e+00	3.199517e-03	
1565	6.000000e-01	3.000000e+00	3.245658e-03	
1566	6.100000e-01	3.000000e+00	3.291535e-03	
1567	6.200000e-01	3.000000e+00	3.337151e-03	
1568	6.300000e-01	3.000000e+00	3.382504e-03	
1569	6.400000e-01	3.000000e+00	3.427595e-03	
1570	6.500000e-01	3.000000e+00	3.472426e-03	
1571	6.600000e-01	3.000000e+00	3.516994e-03	
1572	6.700000e-01	3.000000e+00	3.561303e-03	
1573	6.800000e-01	3.000000e+00	3.605350e-03	
1574	6.900000e-01	3.000000e+00	3.649138e-03	
1575	7.000000e-01	3.000000e+00	3.692665e-03	
1576	7.100000e-01	3.000000e+00	3.735933e-03	
1577	7.200000e-01	3.000000e+00	3.778942e-03	
1578	7.300000e-01	3.000000e+00	3.821692e-03	
1579	7.400000e-01	3.000000e+00	3.864183e-03	
1580	7.500000e-01	3.000000e+00	3.906416e-03	
1581	7.600000e-01	3.000000e+00	3.948391e-03	
1582	7.700000e-01	3.000000e+00	3.990109e-03	
1583	7.800000e-01	3.000000e+00	4.031569e-03	
1584	7.900000e-01	3.000000e+00	4.072771e-03	
1585	8.000000e-01	3.000000e+00	4.113717e-03	
1586	8.100000e-01	3.000000e+00	4.154407e-03	
1587	8.200000e-01	3.000000e+00	4.194840e-03	
1588	8.300000e-01	3.000000e+00	4.235018e-03	
1589	8.400000e-01	3.000000e+00	4.274940e-03	
1590	8.500000e-01	3.000000e+00	4.314606e-03	
1591	8.600000e-01	3.000000e+00	4.354018e-03	
1592	8.700000e-01	3.000000e+00	4.393174e-03	
1593	8.800000e-01	3.000000e+00	4.432077e-03	
1594	8.900000e-01	3.000000e+00	4.470725e-03	
1595	9.000000e-01	3.000000e+00	4.509119e-03	
1596	9.100000e-01	3.000000e+00	4.547260e-03	
1597	9.200000e-01	3.000000e+00	4.585147e-03	
1598	9.300000e-01	3.000000e+00	4.622781e-03	
1599	9.400000e-01	3.000000e+00	4.660163e-03	
1600	9.500000e-01	3.000000e+00	4.697291e-03	
1601	9.600000e-01	3.000000e+00	4.734168e-03	
1602	9.700000e-01	3.000000e+00	4.770793e-03	
1603	9.800000e-01	3.000000e+00	4.807166e-03	
1604	9.900000e-01	3.000000e+00	4.843288e-03	
1605	1.000000e+00	3.000000e+00	4.879158e-03	
1606	1.010000e+00	3.000000e+00	4.914777e-03	
1607	1.020000e+00	3.000000e+00	4.950146e-03	
1608	1.030000e+00	3.000000e+00	4.985264e-03	
1609	1.040000e+00	3.000000e+00	5.020132e-03	
1610	1.050000e+00	3.000000e+00	5.054750e-03	
1611	1.060000e+00	3.000000e+00	5.089119e-03	
1612	1.070000e+00	3.000000e+00	5.123238e-03	
1613	1.080000e+00	3.000000e+00	5.157107e-03	
1614	1.090000e+00	3.000000e+00	5.190727e-03	
1615	1.100000e+00	3.000000e+00	5.224099e-03	
1616	1.110000e+00	3.000000e+00	5.257222e-03	
1617	1.120000e+00	3.000000e+00	5.290096e-03	
1618	1.130000e+00	3.000000e+00	5.322722e-03	
1619	1.140000e+00	3.000000e+00	5.355101e-03	
1620	1.150000e+00	3.000000e+00	5.387231e-03	

Index   v-sweep         v(g)            vs#branch       
--------------------------------------------------------------------------------
1621	1.160000e+00	3.000000e+00	5.419113e-03	
1622	1.170000e+00	3.000000e+00	5.450748e-03	
1623	1.180000e+00	3.000000e+00	5.482136e-03	
1624	1.190000e+00	3.000000e+00	5.513276e-03	
1625	1.200000e+00	3.000000e+00	5.544169e-03	
1626	1.210000e+00	3.000000e+00	5.574815e-03	
1627	1.220000e+00	3.000000e+00	5.605214e-03	
1628	1.230000e+00	3.000000e+00	5.635367e-03	
1629	1.240000e+00	3.000000e+00	5.665272e-03	
1630	1.250000e+00	3.000000e+00	5.694932e-03	
1631	1.260000e+00	3.000000e+00	5.724344e-03	
1632	1.270000e+00	3.000000e+00	5.753511e-03	
1633	1.280000e+00	3.000000e+00	5.782430e-03	
1634	1.290000e+00	3.000000e+00	5.811104e-03	
1635	1.300000e+00	3.000000e+00	5.839531e-03	
1636	1.310000e+00	3.000000e+00	5.867711e-03	
1637	1.320000e+00	3.000000e+00	5.895645e-03	
1638	1.330000e+00	3.000000e+00	5.923333e-03	
1639	1.340000e+00	3.000000e+00	5.950774e-03	
1640	1.350000e+00	3.000000e+00	5.977968e-03	
1641	1.360000e+00	3.000000e+00	6.004915e-03	
1642	1.370000e+00	3.000000e+00	6.031616e-03	
1643	1.380000e+00	3.000000e+00	6.058069e-03	
1644	1.390000e+00	3.000000e+00	6.084275e-03	
1645	1.400000e+00	3.000000e+00	6.110233e-03	
1646	1.410000e+00	3.000000e+00	6.135943e-03	
1647	1.420000e+00	3.000000e+00	6.161404e-03	
1648	1.430000e+00	3.000000e+00	6.186618e-03	
1649	1.440000e+00	3.000000e+00	6.211581e-03	
1650	1.450000e+00	3.000000e+00	6.236296e-03	
1651	1.460000e+00	3.000000e+00	6.260760e-03	
1652	1.470000e+00	3.000000e+00	6.284973e-03	
1653	1.480000e+00	3.000000e+00	6.308935e-03	
1654	1.490000e+00	3.000000e+00	6.332645e-03	
1655	1.500000e+00	3.000000e+00	6.356102e-03	
1656	1.510000e+00	3.000000e+00	6.379306e-03	
1657	1.520000e+00	3.000000e+00	6.402254e-03	
1658	1.530000e+00	3.000000e+00	6.424947e-03	
1659	1.540000e+00	3.000000e+00	6.447383e-03	
1660	1.550000e+00	3.000000e+00	6.469561e-03	
1661	1.560000e+00	3.000000e+00	6.491479e-03	
1662	1.570000e+00	3.000000e+00	6.513136e-03	
1663	1.580000e+00	3.000000e+00	6.534531e-03	
1664	1.590000e+00	3.000000e+00	6.555662e-03	
1665	1.600000e+00	3.000000e+00	6.576527e-03	
1666	1.610000e+00	3.000000e+00	6.597123e-03	
1667	1.620000e+00	3.000000e+00	6.617450e-03	
1668	1.630000e+00	3.000000e+00	6.637504e-03	
1669	1.640000e+00	3.000000e+00	6.657282e-03	
1670	1.650000e+00	3.000000e+00	6.676784e-03	
1671	1.660000e+00	3.000000e+00	6.696004e-03	
1672	1.670000e+00	3.000000e+00	6.714942e-03	
1673	1.680000e+00	3.000000e+00	6.733592e-03	
1674	1.690000e+00	3.000000e+00	6.751952e-03	
1675	1.700000e+00	3.000000e+00	6.770019e-03	
1676	1.710000e+00	3.000000e+00	6.787787e-03	
1677	1.720000e+00	3.000000e+00	6.805254e-03	
1678	1.730000e+00	3.000000e+00	6.822415e-03	

Index   v-sweep         v(g)            vs#branch       
--------------------------------------------------------------------------------
1679	1.740000e+00	3.000000e+00	6.839266e-03	
1680	1.750000e+00	3.000000e+00	6.855803e-03	
1681	1.760000e+00	3.000000e+00	6.872020e-03	
1682	1.770000e+00	3.000000e+00	6.887912e-03	
1683	1.780000e+00	3.000000e+00	6.903476e-03	
1684	1.790000e+00	3.000000e+00	6.918706e-03	
1685	1.800000e+00	3.000000e+00	6.933598e-03	
1686	1.810000e+00	3.000000e+00	6.948147e-03	
1687	1.820000e+00	3.000000e+00	6.962349e-03	
1688	1.830000e+00	3.000000e+00	6.976199e-03	
1689	1.840000e+00	3.000000e+00	6.989694e-03	
1690	1.850000e+00	3.000000e+00	7.002830e-03	
1691	1.860000e+00	3.000000e+00	7.015604e-03	
1692	1.870000e+00	3.000000e+00	7.028014e-03	
1693	1.880000e+00	3.000000e+00	7.040060e-03	
1694	1.890000e+00	3.000000e+00	7.051739e-03	
1695	1.900000e+00	3.000000e+00	7.063052e-03	
1696	1.910000e+00	3.000000e+00	7.074000e-03	
1697	1.920000e+00	3.000000e+00	7.084585e-03	
1698	1.930000e+00	3.000000e+00	7.094810e-03	
1699	1.940000e+00	3.000000e+00	7.104679e-03	
1700	1.950000e+00	3.000000e+00	7.114197e-03	
1701	1.960000e+00	3.000000e+00	7.123370e-03	
1702	1.970000e+00	3.000000e+00	7.132204e-03	
1703	1.980000e+00	3.000000e+00	7.140707e-03	
1704	1.990000e+00	3.000000e+00	7.148887e-03	
1705	2.000000e+00	3.000000e+00	7.156754e-03	
1706	2.010000e+00	3.000000e+00	7.164316e-03	
1707	2.020000e+00	3.000000e+00	7.171584e-03	
1708	2.030000e+00	3.000000e+00	7.178568e-03	
1709	2.040000e+00	3.000000e+00	7.185279e-03	
1710	2.050000e+00	3.000000e+00	7.191727e-03	
1711	2.060000e+00	3.000000e+00	7.197924e-03	
1712	2.070000e+00	3.000000e+00	7.203879e-03	
1713	2.080000e+00	3.000000e+00	7.209603e-03	
1714	2.090000e+00	3.000000e+00	7.215108e-03	
1715	2.100000e+00	3.000000e+00	7.220403e-03	
1716	2.110000e+00	3.000000e+00	7.225499e-03	
1717	2.120000e+00	3.000000e+00	7.230404e-03	
1718	2.130000e+00	3.000000e+00	7.235129e-03	
1719	2.140000e+00	3.000000e+00	7.239682e-03	
1720	2.150000e+00	3.000000e+00	7.244073e-03	
1721	2.160000e+00	3.000000e+00	7.248308e-03	
1722	2.170000e+00	3.000000e+00	7.252398e-03	
1723	2.180000e+00	3.000000e+00	7.256348e-03	
1724	2.190000e+00	3.000000e+00	7.260166e-03	
1725	2.200000e+00	3.000000e+00	7.263860e-03	
1726	2.210000e+00	3.000000e+00	7.267435e-03	
1727	2.220000e+00	3.000000e+00	7.270897e-03	
1728	2.230000e+00	3.000000e+00	7.274253e-03	
1729	2.240000e+00	3.000000e+00	7.277508e-03	
1730	2.250000e+00	3.000000e+00	7.280666e-03	
1731	2.260000e+00	3.000000e+00	7.283734e-03	
1732	2.270000e+00	3.000000e+00	7.286716e-03	
1733	2.280000e+00	3.000000e+00	7.289615e-03	
1734	2.290000e+00	3.000000e+00	7.292437e-03	
1735	2.300000e+00	3.000000e+00	7.295184e-03	
1736	2.310000e+00	3.000000e+00	7.297861e-03	

Index   v-sweep         v(g)            vs#branch       
--------------------------------------------------------------------------------
1737	2.320000e+00	3.000000e+00	7.300472e-03	
1738	2.330000e+00	3.000000e+00	7.303018e-03	
1739	2.340000e+00	3.000000e+00	7.305504e-03	
1740	2.350000e+00	3.000000e+00	7.307932e-03	
1741	2.360000e+00	3.000000e+00	7.310306e-03	
1742	2.370000e+00	3.000000e+00	7.312627e-03	
1743	2.380000e+00	3.000000e+00	7.314898e-03	
1744	2.390000e+00	3.000000e+00	7.317121e-03	
1745	2.400000e+00	3.000000e+00	7.319299e-03	
1746	2.410000e+00	3.000000e+00	7.321433e-03	
1747	2.420000e+00	3.000000e+00	7.323526e-03	
1748	2.430000e+00	3.000000e+00	7.325580e-03	
1749	2.440000e+00	3.000000e+00	7.327595e-03	
1750	2.450000e+00	3.000000e+00	7.329574e-03	
1751	2.460000e+00	3.000000e+00	7.331518e-03	
1752	2.470000e+00	3.000000e+00	7.333430e-03	
1753	2.480000e+00	3.000000e+00	7.335309e-03	
1754	2.490000e+00	3.000000e+00	7.337158e-03	
1755	2.500000e+00	3.000000e+00	7.338977e-03	
1756	2.510000e+00	3.000000e+00	7.340769e-03	
1757	2.520000e+00	3.000000e+00	7.342533e-03	
1758	2.530000e+00	3.000000e+00	7.344272e-03	
1759	2.540000e+00	3.000000e+00	7.345985e-03	
1760	2.550000e+00	3.000000e+00	7.347675e-03	
1761	2.560000e+00	3.000000e+00	7.349342e-03	
1762	2.570000e+00	3.000000e+00	7.350987e-03	
1763	2.580000e+00	3.000000e+00	7.352610e-03	
1764	2.590000e+00	3.000000e+00	7.354213e-03	
1765	2.600000e+00	3.000000e+00	7.355797e-03	
1766	2.610000e+00	3.000000e+00	7.357361e-03	
1767	2.620000e+00	3.000000e+00	7.358907e-03	
1768	2.630000e+00	3.000000e+00	7.360436e-03	
1769	2.640000e+00	3.000000e+00	7.361947e-03	
1770	2.650000e+00	3.000000e+00	7.363442e-03	
1771	2.660000e+00	3.000000e+00	7.364921e-03	
1772	2.670000e+00	3.000000e+00	7.366385e-03	
1773	2.680000e+00	3.000000e+00	7.367834e-03	
1774	2.690000e+00	3.000000e+00	7.369269e-03	
1775	2.700000e+00	3.000000e+00	7.370690e-03	
1776	2.710000e+00	3.000000e+00	7.372098e-03	
1777	2.720000e+00	3.000000e+00	7.373493e-03	
1778	2.730000e+00	3.000000e+00	7.374875e-03	
1779	2.740000e+00	3.000000e+00	7.376245e-03	
1780	2.750000e+00	3.000000e+00	7.377604e-03	
1781	2.760000e+00	3.000000e+00	7.378951e-03	
1782	2.770000e+00	3.000000e+00	7.380287e-03	
1783	2.780000e+00	3.000000e+00	7.381613e-03	
1784	2.790000e+00	3.000000e+00	7.382928e-03	
1785	2.800000e+00	3.000000e+00	7.384234e-03	
1786	2.810000e+00	3.000000e+00	7.385529e-03	
1787	2.820000e+00	3.000000e+00	7.386815e-03	
1788	2.830000e+00	3.000000e+00	7.388093e-03	
1789	2.840000e+00	3.000000e+00	7.389361e-03	
1790	2.850000e+00	3.000000e+00	7.390621e-03	
1791	2.860000e+00	3.000000e+00	7.391872e-03	
1792	2.870000e+00	3.000000e+00	7.393115e-03	
1793	2.880000e+00	3.000000e+00	7.394351e-03	
1794	2.890000e+00	3.000000e+00	7.395578e-03	

Index   v-sweep         v(g)            vs#branch       
--------------------------------------------------------------------------------
1795	2.900000e+00	3.000000e+00	7.396799e-03	
1796	2.910000e+00	3.000000e+00	7.398012e-03	
1797	2.920000e+00	3.000000e+00	7.399218e-03	
1798	2.930000e+00	3.000000e+00	7.400417e-03	
1799	2.940000e+00	3.000000e+00	7.401609e-03	
1800	2.950000e+00	3.000000e+00	7.402795e-03	
1801	2.960000e+00	3.000000e+00	7.403975e-03	
1802	2.970000e+00	3.000000e+00	7.405149e-03	
1803	2.980000e+00	3.000000e+00	7.406316e-03	
1804	2.990000e+00	3.000000e+00	7.407478e-03	
1805	3.000000e+00	3.000000e+00	7.408634e-03	




