
No. of Data Rows : 1806

Circuit: *model = BSIMSOI (FD)

Error on line 3 : .model n1  nmos level= 55  tnom = 27        tox = 4.5e-09    tsi = 5e-8       tbox = 8e-08             mobmod = 0       capmod = 3       shmod = 0 paramchk=0       wint = 0         lint = -2e-08     vth0 = .52       k1 = .39         k2 = .1          k3 = 0         kb1 = .95        k3b = 2.2        nlx = 7.2e-08            dvt0 = .55       dvt1 = .28       dvt2 = -1.4 dvt0w = 0        dvt1w = 0        dvt2w = 0      nch   = 3.3e+17  nsub = 1e+15     ngate = 1e+20                dvbd0 = 60.0     dvbd1 = 1.1      vbsa = 0.0               kb3 = 2.2        delp = 0.02              abp = 0.9        mxc = 0.9        adice0 = 0.93 kbjt1 = 1.0e-08  edl = .0000005 ndiode = 1.13    ntun = 14.0      isbjt = 2e-6     isdif = 1e-6      istun = 0.0     isrec = 1e-5 xbjt = 0.01      xdif = 0.01      xrec = 0.01      xtun = 0.001                u0 = 352         ua = 1.3e-11     ub = 1.7e-18     uc = -4e-10              w0 = 1.16e-06    ags = .25        a1 = 0           a2 = 1         b0 = .01         b1 = 10 rdsw = 700       prwg = 0         prwb = -.2       wr = 1         rbody = 0.0      rbsh = 0.0 a0 = 1.4         keta = -.67      vsat = 135000 dwg = 0          dwb = 0    alpha0 = 0.0     alpha1 = 1.5     beta0 = 20.5 aii = 1.2        bii = 0.1e-7     cii = 0.8        dii = 0.6 voff = -.14      nfactor = .7     cdsc = .00002    cdscb    = 0                 cdscd = 0        cit = 0                 pclm = 2.9       pvag = 12        pdiblc1 = .18    pdiblc2 = .004               pdiblcb = -.234  drout = .2        delta = .01      eta0 = .01       etab = 0    dsub = .3        rth0 94    = .006 clc = .0000001   cle = .6         cf = 1e-20       ckappa = .6                cgdl = 1e-20     cgsl = 1e-20     kt1 = -.3        kt1l = 0                 kt2 = .022       ute = -1.5       ua1 = 4.31e-09   ub1 = -7.61e-18          uc1 = -5.6e-11   prt = 760        at = 22400              cgso = 1e-10     cgdo = 1e-10     cjswg = 5e-10    tt=3e-10 asd = 0.3        csdesw = 1e-12   
Doing analysis at TEMP = 300.150000 and TNOM = 300.150000
Warning: Pd = 0 is less than W.
Warning: Ps = 0 is less than W.

                             *model = BSIMSOI (FD)
--------------------------------------------------------------------------------
Index   v-sweep         v(g)            vs#branch       
--------------------------------------------------------------------------------
0	0.000000e+00	5.000000e-01	-1.250000e-19	
1	1.000000e-02	5.000000e-01	3.403448e-06	
2	2.000000e-02	5.000000e-01	6.447166e-06	
3	3.000000e-02	5.000000e-01	9.138041e-06	
4	4.000000e-02	5.000000e-01	1.148481e-05	
5	5.000000e-02	5.000000e-01	1.349892e-05	
6	6.000000e-02	5.000000e-01	1.519577e-05	
7	7.000000e-02	5.000000e-01	1.659602e-05	
8	8.000000e-02	5.000000e-01	1.772678e-05	
9	9.000000e-02	5.000000e-01	1.862188e-05	
10	1.000000e-01	5.000000e-01	1.932024e-05	
11	1.100000e-01	5.000000e-01	1.986244e-05	
12	1.200000e-01	5.000000e-01	2.028646e-05	
13	1.300000e-01	5.000000e-01	2.062437e-05	
14	1.400000e-01	5.000000e-01	2.090110e-05	
15	1.500000e-01	5.000000e-01	2.113483e-05	
16	1.600000e-01	5.000000e-01	2.133835e-05	
17	1.700000e-01	5.000000e-01	2.152047e-05	
18	1.800000e-01	5.000000e-01	2.168723e-05	
19	1.900000e-01	5.000000e-01	2.184281e-05	
20	2.000000e-01	5.000000e-01	2.199009e-05	
21	2.100000e-01	5.000000e-01	2.213113e-05	
22	2.200000e-01	5.000000e-01	2.226740e-05	
23	2.300000e-01	5.000000e-01	2.239997e-05	
24	2.400000e-01	5.000000e-01	2.252961e-05	
25	2.500000e-01	5.000000e-01	2.265694e-05	
26	2.600000e-01	5.000000e-01	2.278241e-05	
27	2.700000e-01	5.000000e-01	2.290635e-05	
28	2.800000e-01	5.000000e-01	2.302905e-05	
29	2.900000e-01	5.000000e-01	2.315073e-05	
30	3.000000e-01	5.000000e-01	2.327155e-05	
31	3.100000e-01	5.000000e-01	2.339166e-05	
32	3.200000e-01	5.000000e-01	2.351117e-05	
33	3.300000e-01	5.000000e-01	2.363018e-05	
34	3.400000e-01	5.000000e-01	2.374876e-05	
35	3.500000e-01	5.000000e-01	2.386698e-05	
36	3.600000e-01	5.000000e-01	2.398489e-05	
37	3.700000e-01	5.000000e-01	2.410254e-05	
38	3.800000e-01	5.000000e-01	2.421998e-05	
39	3.900000e-01	5.000000e-01	2.433723e-05	
40	4.000000e-01	5.000000e-01	2.445432e-05	
41	4.100000e-01	5.000000e-01	2.457129e-05	
42	4.200000e-01	5.000000e-01	2.468815e-05	
43	4.300000e-01	5.000000e-01	2.480492e-05	
44	4.400000e-01	5.000000e-01	2.492161e-05	
45	4.500000e-01	5.000000e-01	2.503826e-05	
46	4.600000e-01	5.000000e-01	2.515486e-05	
47	4.700000e-01	5.000000e-01	2.527143e-05	
48	4.800000e-01	5.000000e-01	2.538798e-05	
49	4.900000e-01	5.000000e-01	2.550453e-05	
50	5.000000e-01	5.000000e-01	2.562107e-05	
51	5.100000e-01	5.000000e-01	2.573761e-05	
52	5.200000e-01	5.000000e-01	2.585417e-05	
53	5.300000e-01	5.000000e-01	2.597075e-05	
54	5.400000e-01	5.000000e-01	2.608736e-05	

Index   v-sweep         v(g)            vs#branch       
--------------------------------------------------------------------------------
55	5.500000e-01	5.000000e-01	2.620399e-05	
56	5.600000e-01	5.000000e-01	2.632066e-05	
57	5.700000e-01	5.000000e-01	2.643737e-05	
58	5.800000e-01	5.000000e-01	2.655413e-05	
59	5.900000e-01	5.000000e-01	2.667093e-05	
60	6.000000e-01	5.000000e-01	2.678778e-05	
61	6.100000e-01	5.000000e-01	2.690468e-05	
62	6.200000e-01	5.000000e-01	2.702164e-05	
63	6.300000e-01	5.000000e-01	2.713866e-05	
64	6.400000e-01	5.000000e-01	2.725574e-05	
65	6.500000e-01	5.000000e-01	2.737289e-05	
66	6.600000e-01	5.000000e-01	2.749010e-05	
67	6.700000e-01	5.000000e-01	2.760738e-05	
68	6.800000e-01	5.000000e-01	2.772472e-05	
69	6.900000e-01	5.000000e-01	2.784214e-05	
70	7.000000e-01	5.000000e-01	2.795964e-05	
71	7.100000e-01	5.000000e-01	2.807720e-05	
72	7.200000e-01	5.000000e-01	2.819484e-05	
73	7.300000e-01	5.000000e-01	2.831256e-05	
74	7.400000e-01	5.000000e-01	2.843036e-05	
75	7.500000e-01	5.000000e-01	2.854823e-05	
76	7.600000e-01	5.000000e-01	2.866619e-05	
77	7.700000e-01	5.000000e-01	2.878423e-05	
78	7.800000e-01	5.000000e-01	2.890235e-05	
79	7.900000e-01	5.000000e-01	2.902055e-05	
80	8.000000e-01	5.000000e-01	2.913884e-05	
81	8.100000e-01	5.000000e-01	2.925721e-05	
82	8.200000e-01	5.000000e-01	2.937567e-05	
83	8.300000e-01	5.000000e-01	2.949422e-05	
84	8.400000e-01	5.000000e-01	2.961285e-05	
85	8.500000e-01	5.000000e-01	2.973157e-05	
86	8.600000e-01	5.000000e-01	2.985037e-05	
87	8.700000e-01	5.000000e-01	2.996927e-05	
88	8.800000e-01	5.000000e-01	3.008826e-05	
89	8.900000e-01	5.000000e-01	3.020733e-05	
90	9.000000e-01	5.000000e-01	3.032650e-05	
91	9.100000e-01	5.000000e-01	3.044576e-05	
92	9.200000e-01	5.000000e-01	3.056511e-05	
93	9.300000e-01	5.000000e-01	3.068455e-05	
94	9.400000e-01	5.000000e-01	3.080408e-05	
95	9.500000e-01	5.000000e-01	3.092371e-05	
96	9.600000e-01	5.000000e-01	3.104343e-05	
97	9.700000e-01	5.000000e-01	3.116324e-05	
98	9.800000e-01	5.000000e-01	3.128315e-05	
99	9.900000e-01	5.000000e-01	3.140315e-05	
100	1.000000e+00	5.000000e-01	3.152324e-05	
101	1.010000e+00	5.000000e-01	3.164344e-05	
102	1.020000e+00	5.000000e-01	3.176372e-05	
103	1.030000e+00	5.000000e-01	3.188410e-05	
104	1.040000e+00	5.000000e-01	3.200458e-05	
105	1.050000e+00	5.000000e-01	3.212515e-05	
106	1.060000e+00	5.000000e-01	3.224582e-05	
107	1.070000e+00	5.000000e-01	3.236659e-05	
108	1.080000e+00	5.000000e-01	3.248745e-05	
109	1.090000e+00	5.000000e-01	3.260841e-05	
110	1.100000e+00	5.000000e-01	3.272947e-05	
111	1.110000e+00	5.000000e-01	3.285062e-05	
112	1.120000e+00	5.000000e-01	3.297188e-05	

Index   v-sweep         v(g)            vs#branch       
--------------------------------------------------------------------------------
113	1.130000e+00	5.000000e-01	3.309323e-05	
114	1.140000e+00	5.000000e-01	3.321468e-05	
115	1.150000e+00	5.000000e-01	3.333622e-05	
116	1.160000e+00	5.000000e-01	3.345787e-05	
117	1.170000e+00	5.000000e-01	3.357961e-05	
118	1.180000e+00	5.000000e-01	3.370146e-05	
119	1.190000e+00	5.000000e-01	3.382340e-05	
120	1.200000e+00	5.000000e-01	3.394544e-05	
121	1.210000e+00	5.000000e-01	3.406758e-05	
122	1.220000e+00	5.000000e-01	3.418982e-05	
123	1.230000e+00	5.000000e-01	3.431216e-05	
124	1.240000e+00	5.000000e-01	3.443460e-05	
125	1.250000e+00	5.000000e-01	3.455714e-05	
126	1.260000e+00	5.000000e-01	3.467978e-05	
127	1.270000e+00	5.000000e-01	3.480253e-05	
128	1.280000e+00	5.000000e-01	3.492537e-05	
129	1.290000e+00	5.000000e-01	3.504831e-05	
130	1.300000e+00	5.000000e-01	3.517135e-05	
131	1.310000e+00	5.000000e-01	3.529449e-05	
132	1.320000e+00	5.000000e-01	3.541774e-05	
133	1.330000e+00	5.000000e-01	3.554108e-05	
134	1.340000e+00	5.000000e-01	3.566453e-05	
135	1.350000e+00	5.000000e-01	3.578808e-05	
136	1.360000e+00	5.000000e-01	3.591173e-05	
137	1.370000e+00	5.000000e-01	3.603548e-05	
138	1.380000e+00	5.000000e-01	3.615933e-05	
139	1.390000e+00	5.000000e-01	3.628329e-05	
140	1.400000e+00	5.000000e-01	3.640735e-05	
141	1.410000e+00	5.000000e-01	3.653150e-05	
142	1.420000e+00	5.000000e-01	3.665577e-05	
143	1.430000e+00	5.000000e-01	3.678013e-05	
144	1.440000e+00	5.000000e-01	3.690459e-05	
145	1.450000e+00	5.000000e-01	3.702916e-05	
146	1.460000e+00	5.000000e-01	3.715383e-05	
147	1.470000e+00	5.000000e-01	3.727861e-05	
148	1.480000e+00	5.000000e-01	3.740348e-05	
149	1.490000e+00	5.000000e-01	3.752846e-05	
150	1.500000e+00	5.000000e-01	3.765354e-05	
151	1.510000e+00	5.000000e-01	3.777873e-05	
152	1.520000e+00	5.000000e-01	3.790402e-05	
153	1.530000e+00	5.000000e-01	3.802941e-05	
154	1.540000e+00	5.000000e-01	3.815490e-05	
155	1.550000e+00	5.000000e-01	3.828050e-05	
156	1.560000e+00	5.000000e-01	3.840620e-05	
157	1.570000e+00	5.000000e-01	3.853200e-05	
158	1.580000e+00	5.000000e-01	3.865791e-05	
159	1.590000e+00	5.000000e-01	3.878392e-05	
160	1.600000e+00	5.000000e-01	3.891004e-05	
161	1.610000e+00	5.000000e-01	3.903626e-05	
162	1.620000e+00	5.000000e-01	3.916258e-05	
163	1.630000e+00	5.000000e-01	3.928901e-05	
164	1.640000e+00	5.000000e-01	3.941554e-05	
165	1.650000e+00	5.000000e-01	3.954218e-05	
166	1.660000e+00	5.000000e-01	3.966892e-05	
167	1.670000e+00	5.000000e-01	3.979576e-05	
168	1.680000e+00	5.000000e-01	3.992271e-05	
169	1.690000e+00	5.000000e-01	4.004976e-05	
170	1.700000e+00	5.000000e-01	4.017692e-05	

Index   v-sweep         v(g)            vs#branch       
--------------------------------------------------------------------------------
171	1.710000e+00	5.000000e-01	4.030418e-05	
172	1.720000e+00	5.000000e-01	4.043155e-05	
173	1.730000e+00	5.000000e-01	4.055902e-05	
174	1.740000e+00	5.000000e-01	4.068660e-05	
175	1.750000e+00	5.000000e-01	4.081428e-05	
176	1.760000e+00	5.000000e-01	4.094207e-05	
177	1.770000e+00	5.000000e-01	4.106996e-05	
178	1.780000e+00	5.000000e-01	4.119795e-05	
179	1.790000e+00	5.000000e-01	4.132605e-05	
180	1.800000e+00	5.000000e-01	4.145426e-05	
181	1.810000e+00	5.000000e-01	4.158257e-05	
182	1.820000e+00	5.000000e-01	4.171099e-05	
183	1.830000e+00	5.000000e-01	4.183951e-05	
184	1.840000e+00	5.000000e-01	4.196814e-05	
185	1.850000e+00	5.000000e-01	4.209688e-05	
186	1.860000e+00	5.000000e-01	4.222571e-05	
187	1.870000e+00	5.000000e-01	4.235466e-05	
188	1.880000e+00	5.000000e-01	4.248371e-05	
189	1.890000e+00	5.000000e-01	4.261287e-05	
190	1.900000e+00	5.000000e-01	4.274213e-05	
191	1.910000e+00	5.000000e-01	4.287150e-05	
192	1.920000e+00	5.000000e-01	4.300097e-05	
193	1.930000e+00	5.000000e-01	4.313055e-05	
194	1.940000e+00	5.000000e-01	4.326024e-05	
195	1.950000e+00	5.000000e-01	4.339003e-05	
196	1.960000e+00	5.000000e-01	4.351993e-05	
197	1.970000e+00	5.000000e-01	4.364993e-05	
198	1.980000e+00	5.000000e-01	4.378004e-05	
199	1.990000e+00	5.000000e-01	4.391026e-05	
200	2.000000e+00	5.000000e-01	4.404059e-05	
201	2.010000e+00	5.000000e-01	4.417102e-05	
202	2.020000e+00	5.000000e-01	4.430155e-05	
203	2.030000e+00	5.000000e-01	4.443220e-05	
204	2.040000e+00	5.000000e-01	4.456295e-05	
205	2.050000e+00	5.000000e-01	4.469380e-05	
206	2.060000e+00	5.000000e-01	4.482477e-05	
207	2.070000e+00	5.000000e-01	4.495584e-05	
208	2.080000e+00	5.000000e-01	4.508702e-05	
209	2.090000e+00	5.000000e-01	4.521830e-05	
210	2.100000e+00	5.000000e-01	4.534969e-05	
211	2.110000e+00	5.000000e-01	4.548119e-05	
212	2.120000e+00	5.000000e-01	4.561280e-05	
213	2.130000e+00	5.000000e-01	4.574451e-05	
214	2.140000e+00	5.000000e-01	4.587633e-05	
215	2.150000e+00	5.000000e-01	4.600825e-05	
216	2.160000e+00	5.000000e-01	4.614029e-05	
217	2.170000e+00	5.000000e-01	4.627243e-05	
218	2.180000e+00	5.000000e-01	4.640468e-05	
219	2.190000e+00	5.000000e-01	4.653704e-05	
220	2.200000e+00	5.000000e-01	4.666950e-05	
221	2.210000e+00	5.000000e-01	4.680207e-05	
222	2.220000e+00	5.000000e-01	4.693475e-05	
223	2.230000e+00	5.000000e-01	4.706754e-05	
224	2.240000e+00	5.000000e-01	4.720044e-05	
225	2.250000e+00	5.000000e-01	4.733344e-05	
226	2.260000e+00	5.000000e-01	4.746655e-05	
227	2.270000e+00	5.000000e-01	4.759977e-05	
228	2.280000e+00	5.000000e-01	4.773309e-05	

Index   v-sweep         v(g)            vs#branch       
--------------------------------------------------------------------------------
229	2.290000e+00	5.000000e-01	4.786653e-05	
230	2.300000e+00	5.000000e-01	4.800007e-05	
231	2.310000e+00	5.000000e-01	4.813372e-05	
232	2.320000e+00	5.000000e-01	4.826748e-05	
233	2.330000e+00	5.000000e-01	4.840135e-05	
234	2.340000e+00	5.000000e-01	4.853532e-05	
235	2.350000e+00	5.000000e-01	4.866941e-05	
236	2.360000e+00	5.000000e-01	4.880360e-05	
237	2.370000e+00	5.000000e-01	4.893790e-05	
238	2.380000e+00	5.000000e-01	4.907231e-05	
239	2.390000e+00	5.000000e-01	4.920683e-05	
240	2.400000e+00	5.000000e-01	4.934145e-05	
241	2.410000e+00	5.000000e-01	4.947619e-05	
242	2.420000e+00	5.000000e-01	4.961103e-05	
243	2.430000e+00	5.000000e-01	4.974598e-05	
244	2.440000e+00	5.000000e-01	4.988104e-05	
245	2.450000e+00	5.000000e-01	5.001621e-05	
246	2.460000e+00	5.000000e-01	5.015149e-05	
247	2.470000e+00	5.000000e-01	5.028688e-05	
248	2.480000e+00	5.000000e-01	5.042237e-05	
249	2.490000e+00	5.000000e-01	5.055798e-05	
250	2.500000e+00	5.000000e-01	5.069369e-05	
251	2.510000e+00	5.000000e-01	5.082952e-05	
252	2.520000e+00	5.000000e-01	5.096545e-05	
253	2.530000e+00	5.000000e-01	5.110149e-05	
254	2.540000e+00	5.000000e-01	5.123764e-05	
255	2.550000e+00	5.000000e-01	5.137390e-05	
256	2.560000e+00	5.000000e-01	5.151027e-05	
257	2.570000e+00	5.000000e-01	5.164675e-05	
258	2.580000e+00	5.000000e-01	5.178334e-05	
259	2.590000e+00	5.000000e-01	5.192004e-05	
260	2.600000e+00	5.000000e-01	5.205684e-05	
261	2.610000e+00	5.000000e-01	5.219376e-05	
262	2.620000e+00	5.000000e-01	5.233079e-05	
263	2.630000e+00	5.000000e-01	5.246793e-05	
264	2.640000e+00	5.000000e-01	5.260517e-05	
265	2.650000e+00	5.000000e-01	5.274253e-05	
266	2.660000e+00	5.000000e-01	5.287999e-05	
267	2.670000e+00	5.000000e-01	5.301757e-05	
268	2.680000e+00	5.000000e-01	5.315526e-05	
269	2.690000e+00	5.000000e-01	5.329305e-05	
270	2.700000e+00	5.000000e-01	5.343096e-05	
271	2.710000e+00	5.000000e-01	5.356897e-05	
272	2.720000e+00	5.000000e-01	5.370710e-05	
273	2.730000e+00	5.000000e-01	5.384533e-05	
274	2.740000e+00	5.000000e-01	5.398368e-05	
275	2.750000e+00	5.000000e-01	5.412214e-05	
276	2.760000e+00	5.000000e-01	5.426070e-05	
277	2.770000e+00	5.000000e-01	5.439938e-05	
278	2.780000e+00	5.000000e-01	5.453817e-05	
279	2.790000e+00	5.000000e-01	5.467707e-05	
280	2.800000e+00	5.000000e-01	5.481608e-05	
281	2.810000e+00	5.000000e-01	5.495519e-05	
282	2.820000e+00	5.000000e-01	5.509442e-05	
283	2.830000e+00	5.000000e-01	5.523376e-05	
284	2.840000e+00	5.000000e-01	5.537322e-05	
285	2.850000e+00	5.000000e-01	5.551278e-05	
286	2.860000e+00	5.000000e-01	5.565245e-05	

Index   v-sweep         v(g)            vs#branch       
--------------------------------------------------------------------------------
287	2.870000e+00	5.000000e-01	5.579223e-05	
288	2.880000e+00	5.000000e-01	5.593213e-05	
289	2.890000e+00	5.000000e-01	5.607213e-05	
290	2.900000e+00	5.000000e-01	5.621225e-05	
291	2.910000e+00	5.000000e-01	5.635248e-05	
292	2.920000e+00	5.000000e-01	5.649281e-05	
293	2.930000e+00	5.000000e-01	5.663326e-05	
294	2.940000e+00	5.000000e-01	5.677382e-05	
295	2.950000e+00	5.000000e-01	5.691449e-05	
296	2.960000e+00	5.000000e-01	5.705528e-05	
297	2.970000e+00	5.000000e-01	5.719617e-05	
298	2.980000e+00	5.000000e-01	5.733718e-05	
299	2.990000e+00	5.000000e-01	5.747829e-05	
300	3.000000e+00	5.000000e-01	5.761952e-05	
301	0.000000e+00	1.000000e+00	-1.250000e-19	
302	1.000000e-02	1.000000e+00	3.008580e-05	
303	2.000000e-02	1.000000e+00	5.960829e-05	
304	3.000000e-02	1.000000e+00	8.856943e-05	
305	4.000000e-02	1.000000e+00	1.169712e-04	
306	5.000000e-02	1.000000e+00	1.448155e-04	
307	6.000000e-02	1.000000e+00	1.721043e-04	
308	7.000000e-02	1.000000e+00	1.988396e-04	
309	8.000000e-02	1.000000e+00	2.250233e-04	
310	9.000000e-02	1.000000e+00	2.506572e-04	
311	1.000000e-01	1.000000e+00	2.757434e-04	
312	1.100000e-01	1.000000e+00	3.002837e-04	
313	1.200000e-01	1.000000e+00	3.242801e-04	
314	1.300000e-01	1.000000e+00	3.477344e-04	
315	1.400000e-01	1.000000e+00	3.706486e-04	
316	1.500000e-01	1.000000e+00	3.930246e-04	
317	1.600000e-01	1.000000e+00	4.148643e-04	
318	1.700000e-01	1.000000e+00	4.361695e-04	
319	1.800000e-01	1.000000e+00	4.569423e-04	
320	1.900000e-01	1.000000e+00	4.771844e-04	
321	2.000000e-01	1.000000e+00	4.968978e-04	
322	2.100000e-01	1.000000e+00	5.160845e-04	
323	2.200000e-01	1.000000e+00	5.347463e-04	
324	2.300000e-01	1.000000e+00	5.528852e-04	
325	2.400000e-01	1.000000e+00	5.705031e-04	
326	2.500000e-01	1.000000e+00	5.876020e-04	
327	2.600000e-01	1.000000e+00	6.041839e-04	
328	2.700000e-01	1.000000e+00	6.202509e-04	
329	2.800000e-01	1.000000e+00	6.358049e-04	
330	2.900000e-01	1.000000e+00	6.508481e-04	
331	3.000000e-01	1.000000e+00	6.653826e-04	
332	3.100000e-01	1.000000e+00	6.794107e-04	
333	3.200000e-01	1.000000e+00	6.929346e-04	
334	3.300000e-01	1.000000e+00	7.059569e-04	
335	3.400000e-01	1.000000e+00	7.184800e-04	
336	3.500000e-01	1.000000e+00	7.305067e-04	
337	3.600000e-01	1.000000e+00	7.420398e-04	
338	3.700000e-01	1.000000e+00	7.530826e-04	
339	3.800000e-01	1.000000e+00	7.636386e-04	
340	3.900000e-01	1.000000e+00	7.737116e-04	
341	4.000000e-01	1.000000e+00	7.833060e-04	
342	4.100000e-01	1.000000e+00	7.924269e-04	
343	4.200000e-01	1.000000e+00	8.010800e-04	
344	4.300000e-01	1.000000e+00	8.092719e-04	

Index   v-sweep         v(g)            vs#branch       
--------------------------------------------------------------------------------
345	4.400000e-01	1.000000e+00	8.170104e-04	
346	4.500000e-01	1.000000e+00	8.243044e-04	
347	4.600000e-01	1.000000e+00	8.311646e-04	
348	4.700000e-01	1.000000e+00	8.376029e-04	
349	4.800000e-01	1.000000e+00	8.436332e-04	
350	4.900000e-01	1.000000e+00	8.492713e-04	
351	5.000000e-01	1.000000e+00	8.545347e-04	
352	5.100000e-01	1.000000e+00	8.594425e-04	
353	5.200000e-01	1.000000e+00	8.640154e-04	
354	5.300000e-01	1.000000e+00	8.682749e-04	
355	5.400000e-01	1.000000e+00	8.722434e-04	
356	5.500000e-01	1.000000e+00	8.759433e-04	
357	5.600000e-01	1.000000e+00	8.793968e-04	
358	5.700000e-01	1.000000e+00	8.826255e-04	
359	5.800000e-01	1.000000e+00	8.856499e-04	
360	5.900000e-01	1.000000e+00	8.884892e-04	
361	6.000000e-01	1.000000e+00	8.911615e-04	
362	6.100000e-01	1.000000e+00	8.936831e-04	
363	6.200000e-01	1.000000e+00	8.960691e-04	
364	6.300000e-01	1.000000e+00	8.983330e-04	
365	6.400000e-01	1.000000e+00	9.004869e-04	
366	6.500000e-01	1.000000e+00	9.025418e-04	
367	6.600000e-01	1.000000e+00	9.045075e-04	
368	6.700000e-01	1.000000e+00	9.063926e-04	
369	6.800000e-01	1.000000e+00	9.082048e-04	
370	6.900000e-01	1.000000e+00	9.099511e-04	
371	7.000000e-01	1.000000e+00	9.116375e-04	
372	7.100000e-01	1.000000e+00	9.132696e-04	
373	7.200000e-01	1.000000e+00	9.148522e-04	
374	7.300000e-01	1.000000e+00	9.163896e-04	
375	7.400000e-01	1.000000e+00	9.178858e-04	
376	7.500000e-01	1.000000e+00	9.193442e-04	
377	7.600000e-01	1.000000e+00	9.207679e-04	
378	7.700000e-01	1.000000e+00	9.221598e-04	
379	7.800000e-01	1.000000e+00	9.235224e-04	
380	7.900000e-01	1.000000e+00	9.248579e-04	
381	8.000000e-01	1.000000e+00	9.261684e-04	
382	8.100000e-01	1.000000e+00	9.274558e-04	
383	8.200000e-01	1.000000e+00	9.287217e-04	
384	8.300000e-01	1.000000e+00	9.299677e-04	
385	8.400000e-01	1.000000e+00	9.311952e-04	
386	8.500000e-01	1.000000e+00	9.324054e-04	
387	8.600000e-01	1.000000e+00	9.335995e-04	
388	8.700000e-01	1.000000e+00	9.347785e-04	
389	8.800000e-01	1.000000e+00	9.359435e-04	
390	8.900000e-01	1.000000e+00	9.370953e-04	
391	9.000000e-01	1.000000e+00	9.382348e-04	
392	9.100000e-01	1.000000e+00	9.393626e-04	
393	9.200000e-01	1.000000e+00	9.404796e-04	
394	9.300000e-01	1.000000e+00	9.415863e-04	
395	9.400000e-01	1.000000e+00	9.426833e-04	
396	9.500000e-01	1.000000e+00	9.437712e-04	
397	9.600000e-01	1.000000e+00	9.448504e-04	
398	9.700000e-01	1.000000e+00	9.459216e-04	
399	9.800000e-01	1.000000e+00	9.469850e-04	
400	9.900000e-01	1.000000e+00	9.480412e-04	
401	1.000000e+00	1.000000e+00	9.490904e-04	
402	1.010000e+00	1.000000e+00	9.501331e-04	

Index   v-sweep         v(g)            vs#branch       
--------------------------------------------------------------------------------
403	1.020000e+00	1.000000e+00	9.511695e-04	
404	1.030000e+00	1.000000e+00	9.522000e-04	
405	1.040000e+00	1.000000e+00	9.532249e-04	
406	1.050000e+00	1.000000e+00	9.542445e-04	
407	1.060000e+00	1.000000e+00	9.552589e-04	
408	1.070000e+00	1.000000e+00	9.562685e-04	
409	1.080000e+00	1.000000e+00	9.572735e-04	
410	1.090000e+00	1.000000e+00	9.582740e-04	
411	1.100000e+00	1.000000e+00	9.592703e-04	
412	1.110000e+00	1.000000e+00	9.602625e-04	
413	1.120000e+00	1.000000e+00	9.612509e-04	
414	1.130000e+00	1.000000e+00	9.622356e-04	
415	1.140000e+00	1.000000e+00	9.632167e-04	
416	1.150000e+00	1.000000e+00	9.641945e-04	
417	1.160000e+00	1.000000e+00	9.651690e-04	
418	1.170000e+00	1.000000e+00	9.661404e-04	
419	1.180000e+00	1.000000e+00	9.671088e-04	
420	1.190000e+00	1.000000e+00	9.680743e-04	
421	1.200000e+00	1.000000e+00	9.690370e-04	
422	1.210000e+00	1.000000e+00	9.699971e-04	
423	1.220000e+00	1.000000e+00	9.709546e-04	
424	1.230000e+00	1.000000e+00	9.719097e-04	
425	1.240000e+00	1.000000e+00	9.728624e-04	
426	1.250000e+00	1.000000e+00	9.738129e-04	
427	1.260000e+00	1.000000e+00	9.747611e-04	
428	1.270000e+00	1.000000e+00	9.757073e-04	
429	1.280000e+00	1.000000e+00	9.766513e-04	
430	1.290000e+00	1.000000e+00	9.775935e-04	
431	1.300000e+00	1.000000e+00	9.785337e-04	
432	1.310000e+00	1.000000e+00	9.794721e-04	
433	1.320000e+00	1.000000e+00	9.804087e-04	
434	1.330000e+00	1.000000e+00	9.813436e-04	
435	1.340000e+00	1.000000e+00	9.822769e-04	
436	1.350000e+00	1.000000e+00	9.832086e-04	
437	1.360000e+00	1.000000e+00	9.841387e-04	
438	1.370000e+00	1.000000e+00	9.850673e-04	
439	1.380000e+00	1.000000e+00	9.859945e-04	
440	1.390000e+00	1.000000e+00	9.869203e-04	
441	1.400000e+00	1.000000e+00	9.878447e-04	
442	1.410000e+00	1.000000e+00	9.887678e-04	
443	1.420000e+00	1.000000e+00	9.896896e-04	
444	1.430000e+00	1.000000e+00	9.906102e-04	
445	1.440000e+00	1.000000e+00	9.915296e-04	
446	1.450000e+00	1.000000e+00	9.924479e-04	
447	1.460000e+00	1.000000e+00	9.933650e-04	
448	1.470000e+00	1.000000e+00	9.942810e-04	
449	1.480000e+00	1.000000e+00	9.951960e-04	
450	1.490000e+00	1.000000e+00	9.961099e-04	
451	1.500000e+00	1.000000e+00	9.970229e-04	
452	1.510000e+00	1.000000e+00	9.979348e-04	
453	1.520000e+00	1.000000e+00	9.988458e-04	
454	1.530000e+00	1.000000e+00	9.997559e-04	
455	1.540000e+00	1.000000e+00	1.000665e-03	
456	1.550000e+00	1.000000e+00	1.001573e-03	
457	1.560000e+00	1.000000e+00	1.002481e-03	
458	1.570000e+00	1.000000e+00	1.003388e-03	
459	1.580000e+00	1.000000e+00	1.004294e-03	
460	1.590000e+00	1.000000e+00	1.005199e-03	

Index   v-sweep         v(g)            vs#branch       
--------------------------------------------------------------------------------
461	1.600000e+00	1.000000e+00	1.006103e-03	
462	1.610000e+00	1.000000e+00	1.007007e-03	
463	1.620000e+00	1.000000e+00	1.007910e-03	
464	1.630000e+00	1.000000e+00	1.008812e-03	
465	1.640000e+00	1.000000e+00	1.009713e-03	
466	1.650000e+00	1.000000e+00	1.010614e-03	
467	1.660000e+00	1.000000e+00	1.011514e-03	
468	1.670000e+00	1.000000e+00	1.012414e-03	
469	1.680000e+00	1.000000e+00	1.013313e-03	
470	1.690000e+00	1.000000e+00	1.014211e-03	
471	1.700000e+00	1.000000e+00	1.015109e-03	
472	1.710000e+00	1.000000e+00	1.016006e-03	
473	1.720000e+00	1.000000e+00	1.016903e-03	
474	1.730000e+00	1.000000e+00	1.017799e-03	
475	1.740000e+00	1.000000e+00	1.018695e-03	
476	1.750000e+00	1.000000e+00	1.019590e-03	
477	1.760000e+00	1.000000e+00	1.020484e-03	
478	1.770000e+00	1.000000e+00	1.021378e-03	
479	1.780000e+00	1.000000e+00	1.022272e-03	
480	1.790000e+00	1.000000e+00	1.023165e-03	
481	1.800000e+00	1.000000e+00	1.024058e-03	
482	1.810000e+00	1.000000e+00	1.024950e-03	
483	1.820000e+00	1.000000e+00	1.025842e-03	
484	1.830000e+00	1.000000e+00	1.026733e-03	
485	1.840000e+00	1.000000e+00	1.027624e-03	
486	1.850000e+00	1.000000e+00	1.028514e-03	
487	1.860000e+00	1.000000e+00	1.029405e-03	
488	1.870000e+00	1.000000e+00	1.030294e-03	
489	1.880000e+00	1.000000e+00	1.031184e-03	
490	1.890000e+00	1.000000e+00	1.032073e-03	
491	1.900000e+00	1.000000e+00	1.032961e-03	
492	1.910000e+00	1.000000e+00	1.033850e-03	
493	1.920000e+00	1.000000e+00	1.034737e-03	
494	1.930000e+00	1.000000e+00	1.035625e-03	
495	1.940000e+00	1.000000e+00	1.036512e-03	
496	1.950000e+00	1.000000e+00	1.037399e-03	
497	1.960000e+00	1.000000e+00	1.038286e-03	
498	1.970000e+00	1.000000e+00	1.039172e-03	
499	1.980000e+00	1.000000e+00	1.040058e-03	
500	1.990000e+00	1.000000e+00	1.040944e-03	
501	2.000000e+00	1.000000e+00	1.041829e-03	
502	2.010000e+00	1.000000e+00	1.042714e-03	
503	2.020000e+00	1.000000e+00	1.043599e-03	
504	2.030000e+00	1.000000e+00	1.044483e-03	
505	2.040000e+00	1.000000e+00	1.045368e-03	
506	2.050000e+00	1.000000e+00	1.046251e-03	
507	2.060000e+00	1.000000e+00	1.047135e-03	
508	2.070000e+00	1.000000e+00	1.048019e-03	
509	2.080000e+00	1.000000e+00	1.048902e-03	
510	2.090000e+00	1.000000e+00	1.049785e-03	
511	2.100000e+00	1.000000e+00	1.050668e-03	
512	2.110000e+00	1.000000e+00	1.051550e-03	
513	2.120000e+00	1.000000e+00	1.052432e-03	
514	2.130000e+00	1.000000e+00	1.053314e-03	
515	2.140000e+00	1.000000e+00	1.054196e-03	
516	2.150000e+00	1.000000e+00	1.055078e-03	
517	2.160000e+00	1.000000e+00	1.055959e-03	
518	2.170000e+00	1.000000e+00	1.056840e-03	

Index   v-sweep         v(g)            vs#branch       
--------------------------------------------------------------------------------
519	2.180000e+00	1.000000e+00	1.057721e-03	
520	2.190000e+00	1.000000e+00	1.058602e-03	
521	2.200000e+00	1.000000e+00	1.059482e-03	
522	2.210000e+00	1.000000e+00	1.060363e-03	
523	2.220000e+00	1.000000e+00	1.061243e-03	
524	2.230000e+00	1.000000e+00	1.062123e-03	
525	2.240000e+00	1.000000e+00	1.063003e-03	
526	2.250000e+00	1.000000e+00	1.063882e-03	
527	2.260000e+00	1.000000e+00	1.064762e-03	
528	2.270000e+00	1.000000e+00	1.065641e-03	
529	2.280000e+00	1.000000e+00	1.066520e-03	
530	2.290000e+00	1.000000e+00	1.067399e-03	
531	2.300000e+00	1.000000e+00	1.068278e-03	
532	2.310000e+00	1.000000e+00	1.069157e-03	
533	2.320000e+00	1.000000e+00	1.070035e-03	
534	2.330000e+00	1.000000e+00	1.070913e-03	
535	2.340000e+00	1.000000e+00	1.071792e-03	
536	2.350000e+00	1.000000e+00	1.072670e-03	
537	2.360000e+00	1.000000e+00	1.073547e-03	
538	2.370000e+00	1.000000e+00	1.074425e-03	
539	2.380000e+00	1.000000e+00	1.075303e-03	
540	2.390000e+00	1.000000e+00	1.076180e-03	
541	2.400000e+00	1.000000e+00	1.077057e-03	
542	2.410000e+00	1.000000e+00	1.077935e-03	
543	2.420000e+00	1.000000e+00	1.078812e-03	
544	2.430000e+00	1.000000e+00	1.079688e-03	
545	2.440000e+00	1.000000e+00	1.080565e-03	
546	2.450000e+00	1.000000e+00	1.081442e-03	
547	2.460000e+00	1.000000e+00	1.082318e-03	
548	2.470000e+00	1.000000e+00	1.083195e-03	
549	2.480000e+00	1.000000e+00	1.084071e-03	
550	2.490000e+00	1.000000e+00	1.084947e-03	
551	2.500000e+00	1.000000e+00	1.085823e-03	
552	2.510000e+00	1.000000e+00	1.086699e-03	
553	2.520000e+00	1.000000e+00	1.087575e-03	
554	2.530000e+00	1.000000e+00	1.088451e-03	
555	2.540000e+00	1.000000e+00	1.089327e-03	
556	2.550000e+00	1.000000e+00	1.090202e-03	
557	2.560000e+00	1.000000e+00	1.091077e-03	
558	2.570000e+00	1.000000e+00	1.091953e-03	
559	2.580000e+00	1.000000e+00	1.092828e-03	
560	2.590000e+00	1.000000e+00	1.093703e-03	
561	2.600000e+00	1.000000e+00	1.094578e-03	
562	2.610000e+00	1.000000e+00	1.095453e-03	
563	2.620000e+00	1.000000e+00	1.096328e-03	
564	2.630000e+00	1.000000e+00	1.097203e-03	
565	2.640000e+00	1.000000e+00	1.098077e-03	
566	2.650000e+00	1.000000e+00	1.098952e-03	
567	2.660000e+00	1.000000e+00	1.099826e-03	
568	2.670000e+00	1.000000e+00	1.100701e-03	
569	2.680000e+00	1.000000e+00	1.101575e-03	
570	2.690000e+00	1.000000e+00	1.102449e-03	
571	2.700000e+00	1.000000e+00	1.103323e-03	
572	2.710000e+00	1.000000e+00	1.104198e-03	
573	2.720000e+00	1.000000e+00	1.105072e-03	
574	2.730000e+00	1.000000e+00	1.105945e-03	
575	2.740000e+00	1.000000e+00	1.106819e-03	
576	2.750000e+00	1.000000e+00	1.107693e-03	

Index   v-sweep         v(g)            vs#branch       
--------------------------------------------------------------------------------
577	2.760000e+00	1.000000e+00	1.108567e-03	
578	2.770000e+00	1.000000e+00	1.109440e-03	
579	2.780000e+00	1.000000e+00	1.110314e-03	
580	2.790000e+00	1.000000e+00	1.111187e-03	
581	2.800000e+00	1.000000e+00	1.112061e-03	
582	2.810000e+00	1.000000e+00	1.112934e-03	
583	2.820000e+00	1.000000e+00	1.113808e-03	
584	2.830000e+00	1.000000e+00	1.114681e-03	
585	2.840000e+00	1.000000e+00	1.115554e-03	
586	2.850000e+00	1.000000e+00	1.116427e-03	
587	2.860000e+00	1.000000e+00	1.117300e-03	
588	2.870000e+00	1.000000e+00	1.118173e-03	
589	2.880000e+00	1.000000e+00	1.119046e-03	
590	2.890000e+00	1.000000e+00	1.119919e-03	
591	2.900000e+00	1.000000e+00	1.120792e-03	
592	2.910000e+00	1.000000e+00	1.121664e-03	
593	2.920000e+00	1.000000e+00	1.122537e-03	
594	2.930000e+00	1.000000e+00	1.123410e-03	
595	2.940000e+00	1.000000e+00	1.124282e-03	
596	2.950000e+00	1.000000e+00	1.125155e-03	
597	2.960000e+00	1.000000e+00	1.126027e-03	
598	2.970000e+00	1.000000e+00	1.126900e-03	
599	2.980000e+00	1.000000e+00	1.127772e-03	
600	2.990000e+00	1.000000e+00	1.128645e-03	
601	3.000000e+00	1.000000e+00	1.129517e-03	
602	0.000000e+00	1.500000e+00	-1.250000e-19	
603	1.000000e-02	1.500000e+00	4.561848e-05	
604	2.000000e-02	1.500000e+00	9.076433e-05	
605	3.000000e-02	1.500000e+00	1.354387e-04	
606	4.000000e-02	1.500000e+00	1.796427e-04	
607	5.000000e-02	1.500000e+00	2.233776e-04	
608	6.000000e-02	1.500000e+00	2.666444e-04	
609	7.000000e-02	1.500000e+00	3.094443e-04	
610	8.000000e-02	1.500000e+00	3.517785e-04	
611	9.000000e-02	1.500000e+00	3.936480e-04	
612	1.000000e-01	1.500000e+00	4.350541e-04	
613	1.100000e-01	1.500000e+00	4.759977e-04	
614	1.200000e-01	1.500000e+00	5.164801e-04	
615	1.300000e-01	1.500000e+00	5.565023e-04	
616	1.400000e-01	1.500000e+00	5.960655e-04	
617	1.500000e-01	1.500000e+00	6.351707e-04	
618	1.600000e-01	1.500000e+00	6.738191e-04	
619	1.700000e-01	1.500000e+00	7.120117e-04	
620	1.800000e-01	1.500000e+00	7.497497e-04	
621	1.900000e-01	1.500000e+00	7.870342e-04	
622	2.000000e-01	1.500000e+00	8.238661e-04	
623	2.100000e-01	1.500000e+00	8.602466e-04	
624	2.200000e-01	1.500000e+00	8.961768e-04	
625	2.300000e-01	1.500000e+00	9.316577e-04	
626	2.400000e-01	1.500000e+00	9.666905e-04	
627	2.500000e-01	1.500000e+00	1.001276e-03	
628	2.600000e-01	1.500000e+00	1.035415e-03	
629	2.700000e-01	1.500000e+00	1.069110e-03	
630	2.800000e-01	1.500000e+00	1.102360e-03	
631	2.900000e-01	1.500000e+00	1.135168e-03	
632	3.000000e-01	1.500000e+00	1.167533e-03	
633	3.100000e-01	1.500000e+00	1.199457e-03	
634	3.200000e-01	1.500000e+00	1.230942e-03	

Index   v-sweep         v(g)            vs#branch       
--------------------------------------------------------------------------------
635	3.300000e-01	1.500000e+00	1.261987e-03	
636	3.400000e-01	1.500000e+00	1.292595e-03	
637	3.500000e-01	1.500000e+00	1.322766e-03	
638	3.600000e-01	1.500000e+00	1.352500e-03	
639	3.700000e-01	1.500000e+00	1.381800e-03	
640	3.800000e-01	1.500000e+00	1.410665e-03	
641	3.900000e-01	1.500000e+00	1.439098e-03	
642	4.000000e-01	1.500000e+00	1.467098e-03	
643	4.100000e-01	1.500000e+00	1.494667e-03	
644	4.200000e-01	1.500000e+00	1.521806e-03	
645	4.300000e-01	1.500000e+00	1.548515e-03	
646	4.400000e-01	1.500000e+00	1.574796e-03	
647	4.500000e-01	1.500000e+00	1.600649e-03	
648	4.600000e-01	1.500000e+00	1.626075e-03	
649	4.700000e-01	1.500000e+00	1.651076e-03	
650	4.800000e-01	1.500000e+00	1.675650e-03	
651	4.900000e-01	1.500000e+00	1.699801e-03	
652	5.000000e-01	1.500000e+00	1.723528e-03	
653	5.100000e-01	1.500000e+00	1.746832e-03	
654	5.200000e-01	1.500000e+00	1.769713e-03	
655	5.300000e-01	1.500000e+00	1.792173e-03	
656	5.400000e-01	1.500000e+00	1.814212e-03	
657	5.500000e-01	1.500000e+00	1.835831e-03	
658	5.600000e-01	1.500000e+00	1.857029e-03	
659	5.700000e-01	1.500000e+00	1.877809e-03	
660	5.800000e-01	1.500000e+00	1.898169e-03	
661	5.900000e-01	1.500000e+00	1.918111e-03	
662	6.000000e-01	1.500000e+00	1.937634e-03	
663	6.100000e-01	1.500000e+00	1.956739e-03	
664	6.200000e-01	1.500000e+00	1.975427e-03	
665	6.300000e-01	1.500000e+00	1.993696e-03	
666	6.400000e-01	1.500000e+00	2.011547e-03	
667	6.500000e-01	1.500000e+00	2.028980e-03	
668	6.600000e-01	1.500000e+00	2.045995e-03	
669	6.700000e-01	1.500000e+00	2.062591e-03	
670	6.800000e-01	1.500000e+00	2.078768e-03	
671	6.900000e-01	1.500000e+00	2.094524e-03	
672	7.000000e-01	1.500000e+00	2.109860e-03	
673	7.100000e-01	1.500000e+00	2.124774e-03	
674	7.200000e-01	1.500000e+00	2.139265e-03	
675	7.300000e-01	1.500000e+00	2.153332e-03	
676	7.400000e-01	1.500000e+00	2.166974e-03	
677	7.500000e-01	1.500000e+00	2.180189e-03	
678	7.600000e-01	1.500000e+00	2.192977e-03	
679	7.700000e-01	1.500000e+00	2.205335e-03	
680	7.800000e-01	1.500000e+00	2.217262e-03	
681	7.900000e-01	1.500000e+00	2.228759e-03	
682	8.000000e-01	1.500000e+00	2.239823e-03	
683	8.100000e-01	1.500000e+00	2.250456e-03	
684	8.200000e-01	1.500000e+00	2.260658e-03	
685	8.300000e-01	1.500000e+00	2.270431e-03	
686	8.400000e-01	1.500000e+00	2.279777e-03	
687	8.500000e-01	1.500000e+00	2.288700e-03	
688	8.600000e-01	1.500000e+00	2.297206e-03	
689	8.700000e-01	1.500000e+00	2.305301e-03	
690	8.800000e-01	1.500000e+00	2.312995e-03	
691	8.900000e-01	1.500000e+00	2.320298e-03	
692	9.000000e-01	1.500000e+00	2.327222e-03	

Index   v-sweep         v(g)            vs#branch       
--------------------------------------------------------------------------------
693	9.100000e-01	1.500000e+00	2.333779e-03	
694	9.200000e-01	1.500000e+00	2.339985e-03	
695	9.300000e-01	1.500000e+00	2.345856e-03	
696	9.400000e-01	1.500000e+00	2.351408e-03	
697	9.500000e-01	1.500000e+00	2.356658e-03	
698	9.600000e-01	1.500000e+00	2.361624e-03	
699	9.700000e-01	1.500000e+00	2.366323e-03	
700	9.800000e-01	1.500000e+00	2.370773e-03	
701	9.900000e-01	1.500000e+00	2.374989e-03	
702	1.000000e+00	1.500000e+00	2.378989e-03	
703	1.010000e+00	1.500000e+00	2.382787e-03	
704	1.020000e+00	1.500000e+00	2.386399e-03	
705	1.030000e+00	1.500000e+00	2.389838e-03	
706	1.040000e+00	1.500000e+00	2.393117e-03	
707	1.050000e+00	1.500000e+00	2.396248e-03	
708	1.060000e+00	1.500000e+00	2.399242e-03	
709	1.070000e+00	1.500000e+00	2.402109e-03	
710	1.080000e+00	1.500000e+00	2.404860e-03	
711	1.090000e+00	1.500000e+00	2.407503e-03	
712	1.100000e+00	1.500000e+00	2.410045e-03	
713	1.110000e+00	1.500000e+00	2.412495e-03	
714	1.120000e+00	1.500000e+00	2.414860e-03	
715	1.130000e+00	1.500000e+00	2.417144e-03	
716	1.140000e+00	1.500000e+00	2.419355e-03	
717	1.150000e+00	1.500000e+00	2.421498e-03	
718	1.160000e+00	1.500000e+00	2.423576e-03	
719	1.170000e+00	1.500000e+00	2.425596e-03	
720	1.180000e+00	1.500000e+00	2.427560e-03	
721	1.190000e+00	1.500000e+00	2.429472e-03	
722	1.200000e+00	1.500000e+00	2.431336e-03	
723	1.210000e+00	1.500000e+00	2.433156e-03	
724	1.220000e+00	1.500000e+00	2.434933e-03	
725	1.230000e+00	1.500000e+00	2.436671e-03	
726	1.240000e+00	1.500000e+00	2.438372e-03	
727	1.250000e+00	1.500000e+00	2.440039e-03	
728	1.260000e+00	1.500000e+00	2.441673e-03	
729	1.270000e+00	1.500000e+00	2.443276e-03	
730	1.280000e+00	1.500000e+00	2.444851e-03	
731	1.290000e+00	1.500000e+00	2.446398e-03	
732	1.300000e+00	1.500000e+00	2.447920e-03	
733	1.310000e+00	1.500000e+00	2.449418e-03	
734	1.320000e+00	1.500000e+00	2.450893e-03	
735	1.330000e+00	1.500000e+00	2.452346e-03	
736	1.340000e+00	1.500000e+00	2.453779e-03	
737	1.350000e+00	1.500000e+00	2.455192e-03	
738	1.360000e+00	1.500000e+00	2.456588e-03	
739	1.370000e+00	1.500000e+00	2.457966e-03	
740	1.380000e+00	1.500000e+00	2.459327e-03	
741	1.390000e+00	1.500000e+00	2.460673e-03	
742	1.400000e+00	1.500000e+00	2.462003e-03	
743	1.410000e+00	1.500000e+00	2.463320e-03	
744	1.420000e+00	1.500000e+00	2.464623e-03	
745	1.430000e+00	1.500000e+00	2.465913e-03	
746	1.440000e+00	1.500000e+00	2.467191e-03	
747	1.450000e+00	1.500000e+00	2.468457e-03	
748	1.460000e+00	1.500000e+00	2.469713e-03	
749	1.470000e+00	1.500000e+00	2.470957e-03	
750	1.480000e+00	1.500000e+00	2.472191e-03	

Index   v-sweep         v(g)            vs#branch       
--------------------------------------------------------------------------------
751	1.490000e+00	1.500000e+00	2.473415e-03	
752	1.500000e+00	1.500000e+00	2.474630e-03	
753	1.510000e+00	1.500000e+00	2.475836e-03	
754	1.520000e+00	1.500000e+00	2.477034e-03	
755	1.530000e+00	1.500000e+00	2.478223e-03	
756	1.540000e+00	1.500000e+00	2.479404e-03	
757	1.550000e+00	1.500000e+00	2.480578e-03	
758	1.560000e+00	1.500000e+00	2.481744e-03	
759	1.570000e+00	1.500000e+00	2.482904e-03	
760	1.580000e+00	1.500000e+00	2.484057e-03	
761	1.590000e+00	1.500000e+00	2.485203e-03	
762	1.600000e+00	1.500000e+00	2.486343e-03	
763	1.610000e+00	1.500000e+00	2.487477e-03	
764	1.620000e+00	1.500000e+00	2.488605e-03	
765	1.630000e+00	1.500000e+00	2.489728e-03	
766	1.640000e+00	1.500000e+00	2.490845e-03	
767	1.650000e+00	1.500000e+00	2.491957e-03	
768	1.660000e+00	1.500000e+00	2.493064e-03	
769	1.670000e+00	1.500000e+00	2.494167e-03	
770	1.680000e+00	1.500000e+00	2.495264e-03	
771	1.690000e+00	1.500000e+00	2.496358e-03	
772	1.700000e+00	1.500000e+00	2.497446e-03	
773	1.710000e+00	1.500000e+00	2.498531e-03	
774	1.720000e+00	1.500000e+00	2.499612e-03	
775	1.730000e+00	1.500000e+00	2.500688e-03	
776	1.740000e+00	1.500000e+00	2.501761e-03	
777	1.750000e+00	1.500000e+00	2.502830e-03	
778	1.760000e+00	1.500000e+00	2.503896e-03	
779	1.770000e+00	1.500000e+00	2.504958e-03	
780	1.780000e+00	1.500000e+00	2.506017e-03	
781	1.790000e+00	1.500000e+00	2.507073e-03	
782	1.800000e+00	1.500000e+00	2.508125e-03	
783	1.810000e+00	1.500000e+00	2.509175e-03	
784	1.820000e+00	1.500000e+00	2.510221e-03	
785	1.830000e+00	1.500000e+00	2.511265e-03	
786	1.840000e+00	1.500000e+00	2.512305e-03	
787	1.850000e+00	1.500000e+00	2.513343e-03	
788	1.860000e+00	1.500000e+00	2.514379e-03	
789	1.870000e+00	1.500000e+00	2.515412e-03	
790	1.880000e+00	1.500000e+00	2.516442e-03	
791	1.890000e+00	1.500000e+00	2.517470e-03	
792	1.900000e+00	1.500000e+00	2.518496e-03	
793	1.910000e+00	1.500000e+00	2.519520e-03	
794	1.920000e+00	1.500000e+00	2.520541e-03	
795	1.930000e+00	1.500000e+00	2.521560e-03	
796	1.940000e+00	1.500000e+00	2.522577e-03	
797	1.950000e+00	1.500000e+00	2.523592e-03	
798	1.960000e+00	1.500000e+00	2.524605e-03	
799	1.970000e+00	1.500000e+00	2.525616e-03	
800	1.980000e+00	1.500000e+00	2.526625e-03	
801	1.990000e+00	1.500000e+00	2.527632e-03	
802	2.000000e+00	1.500000e+00	2.528637e-03	
803	2.010000e+00	1.500000e+00	2.529641e-03	
804	2.020000e+00	1.500000e+00	2.530643e-03	
805	2.030000e+00	1.500000e+00	2.531643e-03	
806	2.040000e+00	1.500000e+00	2.532642e-03	
807	2.050000e+00	1.500000e+00	2.533639e-03	
808	2.060000e+00	1.500000e+00	2.534635e-03	

Index   v-sweep         v(g)            vs#branch       
--------------------------------------------------------------------------------
809	2.070000e+00	1.500000e+00	2.535629e-03	
810	2.080000e+00	1.500000e+00	2.536621e-03	
811	2.090000e+00	1.500000e+00	2.537613e-03	
812	2.100000e+00	1.500000e+00	2.538602e-03	
813	2.110000e+00	1.500000e+00	2.539591e-03	
814	2.120000e+00	1.500000e+00	2.540578e-03	
815	2.130000e+00	1.500000e+00	2.541563e-03	
816	2.140000e+00	1.500000e+00	2.542548e-03	
817	2.150000e+00	1.500000e+00	2.543531e-03	
818	2.160000e+00	1.500000e+00	2.544513e-03	
819	2.170000e+00	1.500000e+00	2.545494e-03	
820	2.180000e+00	1.500000e+00	2.546474e-03	
821	2.190000e+00	1.500000e+00	2.547452e-03	
822	2.200000e+00	1.500000e+00	2.548429e-03	
823	2.210000e+00	1.500000e+00	2.549406e-03	
824	2.220000e+00	1.500000e+00	2.550381e-03	
825	2.230000e+00	1.500000e+00	2.551355e-03	
826	2.240000e+00	1.500000e+00	2.552328e-03	
827	2.250000e+00	1.500000e+00	2.553300e-03	
828	2.260000e+00	1.500000e+00	2.554271e-03	
829	2.270000e+00	1.500000e+00	2.555241e-03	
830	2.280000e+00	1.500000e+00	2.556211e-03	
831	2.290000e+00	1.500000e+00	2.557179e-03	
832	2.300000e+00	1.500000e+00	2.558146e-03	
833	2.310000e+00	1.500000e+00	2.559113e-03	
834	2.320000e+00	1.500000e+00	2.560078e-03	
835	2.330000e+00	1.500000e+00	2.561043e-03	
836	2.340000e+00	1.500000e+00	2.562007e-03	
837	2.350000e+00	1.500000e+00	2.562970e-03	
838	2.360000e+00	1.500000e+00	2.563933e-03	
839	2.370000e+00	1.500000e+00	2.564894e-03	
840	2.380000e+00	1.500000e+00	2.565855e-03	
841	2.390000e+00	1.500000e+00	2.566815e-03	
842	2.400000e+00	1.500000e+00	2.567774e-03	
843	2.410000e+00	1.500000e+00	2.568733e-03	
844	2.420000e+00	1.500000e+00	2.569690e-03	
845	2.430000e+00	1.500000e+00	2.570647e-03	
846	2.440000e+00	1.500000e+00	2.571604e-03	
847	2.450000e+00	1.500000e+00	2.572560e-03	
848	2.460000e+00	1.500000e+00	2.573515e-03	
849	2.470000e+00	1.500000e+00	2.574469e-03	
850	2.480000e+00	1.500000e+00	2.575423e-03	
851	2.490000e+00	1.500000e+00	2.576376e-03	
852	2.500000e+00	1.500000e+00	2.577328e-03	
853	2.510000e+00	1.500000e+00	2.578280e-03	
854	2.520000e+00	1.500000e+00	2.579232e-03	
855	2.530000e+00	1.500000e+00	2.580182e-03	
856	2.540000e+00	1.500000e+00	2.581132e-03	
857	2.550000e+00	1.500000e+00	2.582082e-03	
858	2.560000e+00	1.500000e+00	2.583031e-03	
859	2.570000e+00	1.500000e+00	2.583979e-03	
860	2.580000e+00	1.500000e+00	2.584927e-03	
861	2.590000e+00	1.500000e+00	2.585875e-03	
862	2.600000e+00	1.500000e+00	2.586822e-03	
863	2.610000e+00	1.500000e+00	2.587768e-03	
864	2.620000e+00	1.500000e+00	2.588714e-03	
865	2.630000e+00	1.500000e+00	2.589659e-03	
866	2.640000e+00	1.500000e+00	2.590604e-03	

Index   v-sweep         v(g)            vs#branch       
--------------------------------------------------------------------------------
867	2.650000e+00	1.500000e+00	2.591549e-03	
868	2.660000e+00	1.500000e+00	2.592492e-03	
869	2.670000e+00	1.500000e+00	2.593436e-03	
870	2.680000e+00	1.500000e+00	2.594379e-03	
871	2.690000e+00	1.500000e+00	2.595321e-03	
872	2.700000e+00	1.500000e+00	2.596264e-03	
873	2.710000e+00	1.500000e+00	2.597205e-03	
874	2.720000e+00	1.500000e+00	2.598146e-03	
875	2.730000e+00	1.500000e+00	2.599087e-03	
876	2.740000e+00	1.500000e+00	2.600028e-03	
877	2.750000e+00	1.500000e+00	2.600968e-03	
878	2.760000e+00	1.500000e+00	2.601907e-03	
879	2.770000e+00	1.500000e+00	2.602846e-03	
880	2.780000e+00	1.500000e+00	2.603785e-03	
881	2.790000e+00	1.500000e+00	2.604724e-03	
882	2.800000e+00	1.500000e+00	2.605662e-03	
883	2.810000e+00	1.500000e+00	2.606599e-03	
884	2.820000e+00	1.500000e+00	2.607537e-03	
885	2.830000e+00	1.500000e+00	2.608474e-03	
886	2.840000e+00	1.500000e+00	2.609410e-03	
887	2.850000e+00	1.500000e+00	2.610346e-03	
888	2.860000e+00	1.500000e+00	2.611282e-03	
889	2.870000e+00	1.500000e+00	2.612218e-03	
890	2.880000e+00	1.500000e+00	2.613153e-03	
891	2.890000e+00	1.500000e+00	2.614088e-03	
892	2.900000e+00	1.500000e+00	2.615022e-03	
893	2.910000e+00	1.500000e+00	2.615957e-03	
894	2.920000e+00	1.500000e+00	2.616891e-03	
895	2.930000e+00	1.500000e+00	2.617824e-03	
896	2.940000e+00	1.500000e+00	2.618757e-03	
897	2.950000e+00	1.500000e+00	2.619690e-03	
898	2.960000e+00	1.500000e+00	2.620623e-03	
899	2.970000e+00	1.500000e+00	2.621555e-03	
900	2.980000e+00	1.500000e+00	2.622488e-03	
901	2.990000e+00	1.500000e+00	2.623419e-03	
902	3.000000e+00	1.500000e+00	2.624351e-03	
903	0.000000e+00	2.000000e+00	-1.250000e-19	
904	1.000000e-02	2.000000e+00	5.434813e-05	
905	2.000000e-02	2.000000e+00	1.083028e-04	
906	3.000000e-02	2.000000e+00	1.618647e-04	
907	4.000000e-02	2.000000e+00	2.150347e-04	
908	5.000000e-02	2.000000e+00	2.678135e-04	
909	6.000000e-02	2.000000e+00	3.202018e-04	
910	7.000000e-02	2.000000e+00	3.722004e-04	
911	8.000000e-02	2.000000e+00	4.238099e-04	
912	9.000000e-02	2.000000e+00	4.750312e-04	
913	1.000000e-01	2.000000e+00	5.258649e-04	
914	1.100000e-01	2.000000e+00	5.763119e-04	
915	1.200000e-01	2.000000e+00	6.263728e-04	
916	1.300000e-01	2.000000e+00	6.760483e-04	
917	1.400000e-01	2.000000e+00	7.253392e-04	
918	1.500000e-01	2.000000e+00	7.742462e-04	
919	1.600000e-01	2.000000e+00	8.227700e-04	
920	1.700000e-01	2.000000e+00	8.709114e-04	
921	1.800000e-01	2.000000e+00	9.186710e-04	
922	1.900000e-01	2.000000e+00	9.660496e-04	
923	2.000000e-01	2.000000e+00	1.013048e-03	
924	2.100000e-01	2.000000e+00	1.059667e-03	

Index   v-sweep         v(g)            vs#branch       
--------------------------------------------------------------------------------
925	2.200000e-01	2.000000e+00	1.105906e-03	
926	2.300000e-01	2.000000e+00	1.151768e-03	
927	2.400000e-01	2.000000e+00	1.197252e-03	
928	2.500000e-01	2.000000e+00	1.242359e-03	
929	2.600000e-01	2.000000e+00	1.287090e-03	
930	2.700000e-01	2.000000e+00	1.331446e-03	
931	2.800000e-01	2.000000e+00	1.375427e-03	
932	2.900000e-01	2.000000e+00	1.419034e-03	
933	3.000000e-01	2.000000e+00	1.462267e-03	
934	3.100000e-01	2.000000e+00	1.505128e-03	
935	3.200000e-01	2.000000e+00	1.547617e-03	
936	3.300000e-01	2.000000e+00	1.589735e-03	
937	3.400000e-01	2.000000e+00	1.631482e-03	
938	3.500000e-01	2.000000e+00	1.672859e-03	
939	3.600000e-01	2.000000e+00	1.713867e-03	
940	3.700000e-01	2.000000e+00	1.754506e-03	
941	3.800000e-01	2.000000e+00	1.794777e-03	
942	3.900000e-01	2.000000e+00	1.834681e-03	
943	4.000000e-01	2.000000e+00	1.874219e-03	
944	4.100000e-01	2.000000e+00	1.913390e-03	
945	4.200000e-01	2.000000e+00	1.952196e-03	
946	4.300000e-01	2.000000e+00	1.990637e-03	
947	4.400000e-01	2.000000e+00	2.028715e-03	
948	4.500000e-01	2.000000e+00	2.066428e-03	
949	4.600000e-01	2.000000e+00	2.103779e-03	
950	4.700000e-01	2.000000e+00	2.140768e-03	
951	4.800000e-01	2.000000e+00	2.177396e-03	
952	4.900000e-01	2.000000e+00	2.213662e-03	
953	5.000000e-01	2.000000e+00	2.249568e-03	
954	5.100000e-01	2.000000e+00	2.285115e-03	
955	5.200000e-01	2.000000e+00	2.320302e-03	
956	5.300000e-01	2.000000e+00	2.355131e-03	
957	5.400000e-01	2.000000e+00	2.389602e-03	
958	5.500000e-01	2.000000e+00	2.423716e-03	
959	5.600000e-01	2.000000e+00	2.457473e-03	
960	5.700000e-01	2.000000e+00	2.490874e-03	
961	5.800000e-01	2.000000e+00	2.523920e-03	
962	5.900000e-01	2.000000e+00	2.556610e-03	
963	6.000000e-01	2.000000e+00	2.588946e-03	
964	6.100000e-01	2.000000e+00	2.620928e-03	
965	6.200000e-01	2.000000e+00	2.652556e-03	
966	6.300000e-01	2.000000e+00	2.683832e-03	
967	6.400000e-01	2.000000e+00	2.714755e-03	
968	6.500000e-01	2.000000e+00	2.745326e-03	
969	6.600000e-01	2.000000e+00	2.775546e-03	
970	6.700000e-01	2.000000e+00	2.805415e-03	
971	6.800000e-01	2.000000e+00	2.834934e-03	
972	6.900000e-01	2.000000e+00	2.864103e-03	
973	7.000000e-01	2.000000e+00	2.892922e-03	
974	7.100000e-01	2.000000e+00	2.921391e-03	
975	7.200000e-01	2.000000e+00	2.949512e-03	
976	7.300000e-01	2.000000e+00	2.977285e-03	
977	7.400000e-01	2.000000e+00	3.004709e-03	
978	7.500000e-01	2.000000e+00	3.031786e-03	
979	7.600000e-01	2.000000e+00	3.058515e-03	
980	7.700000e-01	2.000000e+00	3.084896e-03	
981	7.800000e-01	2.000000e+00	3.110931e-03	
982	7.900000e-01	2.000000e+00	3.136619e-03	

Index   v-sweep         v(g)            vs#branch       
--------------------------------------------------------------------------------
983	8.000000e-01	2.000000e+00	3.161960e-03	
984	8.100000e-01	2.000000e+00	3.186955e-03	
985	8.200000e-01	2.000000e+00	3.211603e-03	
986	8.300000e-01	2.000000e+00	3.235905e-03	
987	8.400000e-01	2.000000e+00	3.259860e-03	
988	8.500000e-01	2.000000e+00	3.283468e-03	
989	8.600000e-01	2.000000e+00	3.306730e-03	
990	8.700000e-01	2.000000e+00	3.329644e-03	
991	8.800000e-01	2.000000e+00	3.352211e-03	
992	8.900000e-01	2.000000e+00	3.374431e-03	
993	9.000000e-01	2.000000e+00	3.396302e-03	
994	9.100000e-01	2.000000e+00	3.417825e-03	
995	9.200000e-01	2.000000e+00	3.438998e-03	
996	9.300000e-01	2.000000e+00	3.459820e-03	
997	9.400000e-01	2.000000e+00	3.480292e-03	
998	9.500000e-01	2.000000e+00	3.500411e-03	
999	9.600000e-01	2.000000e+00	3.520176e-03	
1000	9.700000e-01	2.000000e+00	3.539587e-03	
1001	9.800000e-01	2.000000e+00	3.558641e-03	
1002	9.900000e-01	2.000000e+00	3.577337e-03	
1003	1.000000e+00	2.000000e+00	3.595673e-03	
1004	1.010000e+00	2.000000e+00	3.613647e-03	
1005	1.020000e+00	2.000000e+00	3.631256e-03	
1006	1.030000e+00	2.000000e+00	3.648498e-03	
1007	1.040000e+00	2.000000e+00	3.665370e-03	
1008	1.050000e+00	2.000000e+00	3.681869e-03	
1009	1.060000e+00	2.000000e+00	3.697992e-03	
1010	1.070000e+00	2.000000e+00	3.713735e-03	
1011	1.080000e+00	2.000000e+00	3.729095e-03	
1012	1.090000e+00	2.000000e+00	3.744069e-03	
1013	1.100000e+00	2.000000e+00	3.758651e-03	
1014	1.110000e+00	2.000000e+00	3.772839e-03	
1015	1.120000e+00	2.000000e+00	3.786629e-03	
1016	1.130000e+00	2.000000e+00	3.800016e-03	
1017	1.140000e+00	2.000000e+00	3.812997e-03	
1018	1.150000e+00	2.000000e+00	3.825570e-03	
1019	1.160000e+00	2.000000e+00	3.837731e-03	
1020	1.170000e+00	2.000000e+00	3.849478e-03	
1021	1.180000e+00	2.000000e+00	3.860810e-03	
1022	1.190000e+00	2.000000e+00	3.871727e-03	
1023	1.200000e+00	2.000000e+00	3.882230e-03	
1024	1.210000e+00	2.000000e+00	3.892320e-03	
1025	1.220000e+00	2.000000e+00	3.902000e-03	
1026	1.230000e+00	2.000000e+00	3.911277e-03	
1027	1.240000e+00	2.000000e+00	3.920155e-03	
1028	1.250000e+00	2.000000e+00	3.928642e-03	
1029	1.260000e+00	2.000000e+00	3.936748e-03	
1030	1.270000e+00	2.000000e+00	3.944482e-03	
1031	1.280000e+00	2.000000e+00	3.951857e-03	
1032	1.290000e+00	2.000000e+00	3.958885e-03	
1033	1.300000e+00	2.000000e+00	3.965580e-03	
1034	1.310000e+00	2.000000e+00	3.971955e-03	
1035	1.320000e+00	2.000000e+00	3.978025e-03	
1036	1.330000e+00	2.000000e+00	3.983804e-03	
1037	1.340000e+00	2.000000e+00	3.989309e-03	
1038	1.350000e+00	2.000000e+00	3.994553e-03	
1039	1.360000e+00	2.000000e+00	3.999551e-03	
1040	1.370000e+00	2.000000e+00	4.004317e-03	

Index   v-sweep         v(g)            vs#branch       
--------------------------------------------------------------------------------
1041	1.380000e+00	2.000000e+00	4.008866e-03	
1042	1.390000e+00	2.000000e+00	4.013210e-03	
1043	1.400000e+00	2.000000e+00	4.017362e-03	
1044	1.410000e+00	2.000000e+00	4.021334e-03	
1045	1.420000e+00	2.000000e+00	4.025138e-03	
1046	1.430000e+00	2.000000e+00	4.028784e-03	
1047	1.440000e+00	2.000000e+00	4.032283e-03	
1048	1.450000e+00	2.000000e+00	4.035643e-03	
1049	1.460000e+00	2.000000e+00	4.038875e-03	
1050	1.470000e+00	2.000000e+00	4.041986e-03	
1051	1.480000e+00	2.000000e+00	4.044984e-03	
1052	1.490000e+00	2.000000e+00	4.047877e-03	
1053	1.500000e+00	2.000000e+00	4.050670e-03	
1054	1.510000e+00	2.000000e+00	4.053371e-03	
1055	1.520000e+00	2.000000e+00	4.055985e-03	
1056	1.530000e+00	2.000000e+00	4.058518e-03	
1057	1.540000e+00	2.000000e+00	4.060975e-03	
1058	1.550000e+00	2.000000e+00	4.063359e-03	
1059	1.560000e+00	2.000000e+00	4.065677e-03	
1060	1.570000e+00	2.000000e+00	4.067931e-03	
1061	1.580000e+00	2.000000e+00	4.070125e-03	
1062	1.590000e+00	2.000000e+00	4.072263e-03	
1063	1.600000e+00	2.000000e+00	4.074349e-03	
1064	1.610000e+00	2.000000e+00	4.076385e-03	
1065	1.620000e+00	2.000000e+00	4.078373e-03	
1066	1.630000e+00	2.000000e+00	4.080318e-03	
1067	1.640000e+00	2.000000e+00	4.082220e-03	
1068	1.650000e+00	2.000000e+00	4.084083e-03	
1069	1.660000e+00	2.000000e+00	4.085908e-03	
1070	1.670000e+00	2.000000e+00	4.087697e-03	
1071	1.680000e+00	2.000000e+00	4.089453e-03	
1072	1.690000e+00	2.000000e+00	4.091177e-03	
1073	1.700000e+00	2.000000e+00	4.092871e-03	
1074	1.710000e+00	2.000000e+00	4.094535e-03	
1075	1.720000e+00	2.000000e+00	4.096173e-03	
1076	1.730000e+00	2.000000e+00	4.097784e-03	
1077	1.740000e+00	2.000000e+00	4.099371e-03	
1078	1.750000e+00	2.000000e+00	4.100934e-03	
1079	1.760000e+00	2.000000e+00	4.102474e-03	
1080	1.770000e+00	2.000000e+00	4.103993e-03	
1081	1.780000e+00	2.000000e+00	4.105491e-03	
1082	1.790000e+00	2.000000e+00	4.106970e-03	
1083	1.800000e+00	2.000000e+00	4.108431e-03	
1084	1.810000e+00	2.000000e+00	4.109873e-03	
1085	1.820000e+00	2.000000e+00	4.111298e-03	
1086	1.830000e+00	2.000000e+00	4.112707e-03	
1087	1.840000e+00	2.000000e+00	4.114101e-03	
1088	1.850000e+00	2.000000e+00	4.115479e-03	
1089	1.860000e+00	2.000000e+00	4.116843e-03	
1090	1.870000e+00	2.000000e+00	4.118193e-03	
1091	1.880000e+00	2.000000e+00	4.119530e-03	
1092	1.890000e+00	2.000000e+00	4.120855e-03	
1093	1.900000e+00	2.000000e+00	4.122167e-03	
1094	1.910000e+00	2.000000e+00	4.123467e-03	
1095	1.920000e+00	2.000000e+00	4.124756e-03	
1096	1.930000e+00	2.000000e+00	4.126035e-03	
1097	1.940000e+00	2.000000e+00	4.127303e-03	
1098	1.950000e+00	2.000000e+00	4.128561e-03	

Index   v-sweep         v(g)            vs#branch       
--------------------------------------------------------------------------------
1099	1.960000e+00	2.000000e+00	4.129809e-03	
1100	1.970000e+00	2.000000e+00	4.131048e-03	
1101	1.980000e+00	2.000000e+00	4.132278e-03	
1102	1.990000e+00	2.000000e+00	4.133499e-03	
1103	2.000000e+00	2.000000e+00	4.134712e-03	
1104	2.010000e+00	2.000000e+00	4.135917e-03	
1105	2.020000e+00	2.000000e+00	4.137114e-03	
1106	2.030000e+00	2.000000e+00	4.138303e-03	
1107	2.040000e+00	2.000000e+00	4.139485e-03	
1108	2.050000e+00	2.000000e+00	4.140661e-03	
1109	2.060000e+00	2.000000e+00	4.141829e-03	
1110	2.070000e+00	2.000000e+00	4.142991e-03	
1111	2.080000e+00	2.000000e+00	4.144147e-03	
1112	2.090000e+00	2.000000e+00	4.145296e-03	
1113	2.100000e+00	2.000000e+00	4.146440e-03	
1114	2.110000e+00	2.000000e+00	4.147577e-03	
1115	2.120000e+00	2.000000e+00	4.148709e-03	
1116	2.130000e+00	2.000000e+00	4.149836e-03	
1117	2.140000e+00	2.000000e+00	4.150958e-03	
1118	2.150000e+00	2.000000e+00	4.152074e-03	
1119	2.160000e+00	2.000000e+00	4.153185e-03	
1120	2.170000e+00	2.000000e+00	4.154292e-03	
1121	2.180000e+00	2.000000e+00	4.155394e-03	
1122	2.190000e+00	2.000000e+00	4.156491e-03	
1123	2.200000e+00	2.000000e+00	4.157584e-03	
1124	2.210000e+00	2.000000e+00	4.158673e-03	
1125	2.220000e+00	2.000000e+00	4.159758e-03	
1126	2.230000e+00	2.000000e+00	4.160839e-03	
1127	2.240000e+00	2.000000e+00	4.161915e-03	
1128	2.250000e+00	2.000000e+00	4.162988e-03	
1129	2.260000e+00	2.000000e+00	4.164058e-03	
1130	2.270000e+00	2.000000e+00	4.165123e-03	
1131	2.280000e+00	2.000000e+00	4.166185e-03	
1132	2.290000e+00	2.000000e+00	4.167244e-03	
1133	2.300000e+00	2.000000e+00	4.168300e-03	
1134	2.310000e+00	2.000000e+00	4.169352e-03	
1135	2.320000e+00	2.000000e+00	4.170401e-03	
1136	2.330000e+00	2.000000e+00	4.171447e-03	
1137	2.340000e+00	2.000000e+00	4.172490e-03	
1138	2.350000e+00	2.000000e+00	4.173530e-03	
1139	2.360000e+00	2.000000e+00	4.174567e-03	
1140	2.370000e+00	2.000000e+00	4.175602e-03	
1141	2.380000e+00	2.000000e+00	4.176633e-03	
1142	2.390000e+00	2.000000e+00	4.177663e-03	
1143	2.400000e+00	2.000000e+00	4.178689e-03	
1144	2.410000e+00	2.000000e+00	4.179713e-03	
1145	2.420000e+00	2.000000e+00	4.180735e-03	
1146	2.430000e+00	2.000000e+00	4.181754e-03	
1147	2.440000e+00	2.000000e+00	4.182771e-03	
1148	2.450000e+00	2.000000e+00	4.183786e-03	
1149	2.460000e+00	2.000000e+00	4.184798e-03	
1150	2.470000e+00	2.000000e+00	4.185808e-03	
1151	2.480000e+00	2.000000e+00	4.186816e-03	
1152	2.490000e+00	2.000000e+00	4.187822e-03	
1153	2.500000e+00	2.000000e+00	4.188826e-03	
1154	2.510000e+00	2.000000e+00	4.189828e-03	
1155	2.520000e+00	2.000000e+00	4.190828e-03	
1156	2.530000e+00	2.000000e+00	4.191826e-03	

Index   v-sweep         v(g)            vs#branch       
--------------------------------------------------------------------------------
1157	2.540000e+00	2.000000e+00	4.192823e-03	
1158	2.550000e+00	2.000000e+00	4.193817e-03	
1159	2.560000e+00	2.000000e+00	4.194810e-03	
1160	2.570000e+00	2.000000e+00	4.195801e-03	
1161	2.580000e+00	2.000000e+00	4.196790e-03	
1162	2.590000e+00	2.000000e+00	4.197778e-03	
1163	2.600000e+00	2.000000e+00	4.198764e-03	
1164	2.610000e+00	2.000000e+00	4.199748e-03	
1165	2.620000e+00	2.000000e+00	4.200731e-03	
1166	2.630000e+00	2.000000e+00	4.201712e-03	
1167	2.640000e+00	2.000000e+00	4.202692e-03	
1168	2.650000e+00	2.000000e+00	4.203670e-03	
1169	2.660000e+00	2.000000e+00	4.204647e-03	
1170	2.670000e+00	2.000000e+00	4.205622e-03	
1171	2.680000e+00	2.000000e+00	4.206597e-03	
1172	2.690000e+00	2.000000e+00	4.207569e-03	
1173	2.700000e+00	2.000000e+00	4.208541e-03	
1174	2.710000e+00	2.000000e+00	4.209511e-03	
1175	2.720000e+00	2.000000e+00	4.210479e-03	
1176	2.730000e+00	2.000000e+00	4.211447e-03	
1177	2.740000e+00	2.000000e+00	4.212413e-03	
1178	2.750000e+00	2.000000e+00	4.213378e-03	
1179	2.760000e+00	2.000000e+00	4.214342e-03	
1180	2.770000e+00	2.000000e+00	4.215305e-03	
1181	2.780000e+00	2.000000e+00	4.216267e-03	
1182	2.790000e+00	2.000000e+00	4.217227e-03	
1183	2.800000e+00	2.000000e+00	4.218186e-03	
1184	2.810000e+00	2.000000e+00	4.219145e-03	
1185	2.820000e+00	2.000000e+00	4.220102e-03	
1186	2.830000e+00	2.000000e+00	4.221058e-03	
1187	2.840000e+00	2.000000e+00	4.222013e-03	
1188	2.850000e+00	2.000000e+00	4.222967e-03	
1189	2.860000e+00	2.000000e+00	4.223921e-03	
1190	2.870000e+00	2.000000e+00	4.224873e-03	
1191	2.880000e+00	2.000000e+00	4.225824e-03	
1192	2.890000e+00	2.000000e+00	4.226774e-03	
1193	2.900000e+00	2.000000e+00	4.227724e-03	
1194	2.910000e+00	2.000000e+00	4.228672e-03	
1195	2.920000e+00	2.000000e+00	4.229620e-03	
1196	2.930000e+00	2.000000e+00	4.230567e-03	
1197	2.940000e+00	2.000000e+00	4.231512e-03	
1198	2.950000e+00	2.000000e+00	4.232458e-03	
1199	2.960000e+00	2.000000e+00	4.233402e-03	
1200	2.970000e+00	2.000000e+00	4.234345e-03	
1201	2.980000e+00	2.000000e+00	4.235288e-03	
1202	2.990000e+00	2.000000e+00	4.236229e-03	
1203	3.000000e+00	2.000000e+00	4.237170e-03	
1204	0.000000e+00	2.500000e+00	-1.250000e-19	
1205	1.000000e-02	2.500000e+00	5.937829e-05	
1206	2.000000e-02	2.500000e+00	1.184251e-04	
1207	3.000000e-02	2.500000e+00	1.771408e-04	
1208	4.000000e-02	2.500000e+00	2.355261e-04	
1209	5.000000e-02	2.500000e+00	2.935814e-04	
1210	6.000000e-02	2.500000e+00	3.513072e-04	
1211	7.000000e-02	2.500000e+00	4.087041e-04	
1212	8.000000e-02	2.500000e+00	4.657725e-04	
1213	9.000000e-02	2.500000e+00	5.225130e-04	
1214	1.000000e-01	2.500000e+00	5.789260e-04	

Index   v-sweep         v(g)            vs#branch       
--------------------------------------------------------------------------------
1215	1.100000e-01	2.500000e+00	6.350121e-04	
1216	1.200000e-01	2.500000e+00	6.907717e-04	
1217	1.300000e-01	2.500000e+00	7.462055e-04	
1218	1.400000e-01	2.500000e+00	8.013137e-04	
1219	1.500000e-01	2.500000e+00	8.560971e-04	
1220	1.600000e-01	2.500000e+00	9.105560e-04	
1221	1.700000e-01	2.500000e+00	9.646909e-04	
1222	1.800000e-01	2.500000e+00	1.018502e-03	
1223	1.900000e-01	2.500000e+00	1.071991e-03	
1224	2.000000e-01	2.500000e+00	1.125157e-03	
1225	2.100000e-01	2.500000e+00	1.178001e-03	
1226	2.200000e-01	2.500000e+00	1.230524e-03	
1227	2.300000e-01	2.500000e+00	1.282726e-03	
1228	2.400000e-01	2.500000e+00	1.334607e-03	
1229	2.500000e-01	2.500000e+00	1.386168e-03	
1230	2.600000e-01	2.500000e+00	1.437410e-03	
1231	2.700000e-01	2.500000e+00	1.488332e-03	
1232	2.800000e-01	2.500000e+00	1.538936e-03	
1233	2.900000e-01	2.500000e+00	1.589222e-03	
1234	3.000000e-01	2.500000e+00	1.639190e-03	
1235	3.100000e-01	2.500000e+00	1.688842e-03	
1236	3.200000e-01	2.500000e+00	1.738176e-03	
1237	3.300000e-01	2.500000e+00	1.787195e-03	
1238	3.400000e-01	2.500000e+00	1.835897e-03	
1239	3.500000e-01	2.500000e+00	1.884285e-03	
1240	3.600000e-01	2.500000e+00	1.932358e-03	
1241	3.700000e-01	2.500000e+00	1.980116e-03	
1242	3.800000e-01	2.500000e+00	2.027561e-03	
1243	3.900000e-01	2.500000e+00	2.074692e-03	
1244	4.000000e-01	2.500000e+00	2.121511e-03	
1245	4.100000e-01	2.500000e+00	2.168017e-03	
1246	4.200000e-01	2.500000e+00	2.214211e-03	
1247	4.300000e-01	2.500000e+00	2.260094e-03	
1248	4.400000e-01	2.500000e+00	2.305666e-03	
1249	4.500000e-01	2.500000e+00	2.350927e-03	
1250	4.600000e-01	2.500000e+00	2.395878e-03	
1251	4.700000e-01	2.500000e+00	2.440519e-03	
1252	4.800000e-01	2.500000e+00	2.484852e-03	
1253	4.900000e-01	2.500000e+00	2.528875e-03	
1254	5.000000e-01	2.500000e+00	2.572590e-03	
1255	5.100000e-01	2.500000e+00	2.615998e-03	
1256	5.200000e-01	2.500000e+00	2.659098e-03	
1257	5.300000e-01	2.500000e+00	2.701891e-03	
1258	5.400000e-01	2.500000e+00	2.744377e-03	
1259	5.500000e-01	2.500000e+00	2.786558e-03	
1260	5.600000e-01	2.500000e+00	2.828433e-03	
1261	5.700000e-01	2.500000e+00	2.870002e-03	
1262	5.800000e-01	2.500000e+00	2.911267e-03	
1263	5.900000e-01	2.500000e+00	2.952228e-03	
1264	6.000000e-01	2.500000e+00	2.992885e-03	
1265	6.100000e-01	2.500000e+00	3.033238e-03	
1266	6.200000e-01	2.500000e+00	3.073289e-03	
1267	6.300000e-01	2.500000e+00	3.113036e-03	
1268	6.400000e-01	2.500000e+00	3.152482e-03	
1269	6.500000e-01	2.500000e+00	3.191626e-03	
1270	6.600000e-01	2.500000e+00	3.230468e-03	
1271	6.700000e-01	2.500000e+00	3.269010e-03	
1272	6.800000e-01	2.500000e+00	3.307251e-03	

Index   v-sweep         v(g)            vs#branch       
--------------------------------------------------------------------------------
1273	6.900000e-01	2.500000e+00	3.345191e-03	
1274	7.000000e-01	2.500000e+00	3.382833e-03	
1275	7.100000e-01	2.500000e+00	3.420174e-03	
1276	7.200000e-01	2.500000e+00	3.457217e-03	
1277	7.300000e-01	2.500000e+00	3.493962e-03	
1278	7.400000e-01	2.500000e+00	3.530408e-03	
1279	7.500000e-01	2.500000e+00	3.566557e-03	
1280	7.600000e-01	2.500000e+00	3.602408e-03	
1281	7.700000e-01	2.500000e+00	3.637962e-03	
1282	7.800000e-01	2.500000e+00	3.673219e-03	
1283	7.900000e-01	2.500000e+00	3.708181e-03	
1284	8.000000e-01	2.500000e+00	3.742846e-03	
1285	8.100000e-01	2.500000e+00	3.777216e-03	
1286	8.200000e-01	2.500000e+00	3.811290e-03	
1287	8.300000e-01	2.500000e+00	3.845070e-03	
1288	8.400000e-01	2.500000e+00	3.878555e-03	
1289	8.500000e-01	2.500000e+00	3.911746e-03	
1290	8.600000e-01	2.500000e+00	3.944644e-03	
1291	8.700000e-01	2.500000e+00	3.977247e-03	
1292	8.800000e-01	2.500000e+00	4.009557e-03	
1293	8.900000e-01	2.500000e+00	4.041575e-03	
1294	9.000000e-01	2.500000e+00	4.073300e-03	
1295	9.100000e-01	2.500000e+00	4.104732e-03	
1296	9.200000e-01	2.500000e+00	4.135872e-03	
1297	9.300000e-01	2.500000e+00	4.166720e-03	
1298	9.400000e-01	2.500000e+00	4.197277e-03	
1299	9.500000e-01	2.500000e+00	4.227542e-03	
1300	9.600000e-01	2.500000e+00	4.257516e-03	
1301	9.700000e-01	2.500000e+00	4.287199e-03	
1302	9.800000e-01	2.500000e+00	4.316591e-03	
1303	9.900000e-01	2.500000e+00	4.345693e-03	
1304	1.000000e+00	2.500000e+00	4.374504e-03	
1305	1.010000e+00	2.500000e+00	4.403024e-03	
1306	1.020000e+00	2.500000e+00	4.431255e-03	
1307	1.030000e+00	2.500000e+00	4.459195e-03	
1308	1.040000e+00	2.500000e+00	4.486845e-03	
1309	1.050000e+00	2.500000e+00	4.514205e-03	
1310	1.060000e+00	2.500000e+00	4.541274e-03	
1311	1.070000e+00	2.500000e+00	4.568054e-03	
1312	1.080000e+00	2.500000e+00	4.594543e-03	
1313	1.090000e+00	2.500000e+00	4.620742e-03	
1314	1.100000e+00	2.500000e+00	4.646651e-03	
1315	1.110000e+00	2.500000e+00	4.672268e-03	
1316	1.120000e+00	2.500000e+00	4.697595e-03	
1317	1.130000e+00	2.500000e+00	4.722631e-03	
1318	1.140000e+00	2.500000e+00	4.747375e-03	
1319	1.150000e+00	2.500000e+00	4.771828e-03	
1320	1.160000e+00	2.500000e+00	4.795988e-03	
1321	1.170000e+00	2.500000e+00	4.819855e-03	
1322	1.180000e+00	2.500000e+00	4.843429e-03	
1323	1.190000e+00	2.500000e+00	4.866708e-03	
1324	1.200000e+00	2.500000e+00	4.889693e-03	
1325	1.210000e+00	2.500000e+00	4.912382e-03	
1326	1.220000e+00	2.500000e+00	4.934774e-03	
1327	1.230000e+00	2.500000e+00	4.956869e-03	
1328	1.240000e+00	2.500000e+00	4.978664e-03	
1329	1.250000e+00	2.500000e+00	5.000160e-03	
1330	1.260000e+00	2.500000e+00	5.021353e-03	

Index   v-sweep         v(g)            vs#branch       
--------------------------------------------------------------------------------
1331	1.270000e+00	2.500000e+00	5.042244e-03	
1332	1.280000e+00	2.500000e+00	5.062829e-03	
1333	1.290000e+00	2.500000e+00	5.083108e-03	
1334	1.300000e+00	2.500000e+00	5.103078e-03	
1335	1.310000e+00	2.500000e+00	5.122736e-03	
1336	1.320000e+00	2.500000e+00	5.142081e-03	
1337	1.330000e+00	2.500000e+00	5.161110e-03	
1338	1.340000e+00	2.500000e+00	5.179819e-03	
1339	1.350000e+00	2.500000e+00	5.198207e-03	
1340	1.360000e+00	2.500000e+00	5.216269e-03	
1341	1.370000e+00	2.500000e+00	5.234003e-03	
1342	1.380000e+00	2.500000e+00	5.251403e-03	
1343	1.390000e+00	2.500000e+00	5.268467e-03	
1344	1.400000e+00	2.500000e+00	5.285191e-03	
1345	1.410000e+00	2.500000e+00	5.301569e-03	
1346	1.420000e+00	2.500000e+00	5.317599e-03	
1347	1.430000e+00	2.500000e+00	5.333274e-03	
1348	1.440000e+00	2.500000e+00	5.348590e-03	
1349	1.450000e+00	2.500000e+00	5.363543e-03	
1350	1.460000e+00	2.500000e+00	5.378128e-03	
1351	1.470000e+00	2.500000e+00	5.392340e-03	
1352	1.480000e+00	2.500000e+00	5.406176e-03	
1353	1.490000e+00	2.500000e+00	5.419631e-03	
1354	1.500000e+00	2.500000e+00	5.432701e-03	
1355	1.510000e+00	2.500000e+00	5.445383e-03	
1356	1.520000e+00	2.500000e+00	5.457675e-03	
1357	1.530000e+00	2.500000e+00	5.469576e-03	
1358	1.540000e+00	2.500000e+00	5.481083e-03	
1359	1.550000e+00	2.500000e+00	5.492199e-03	
1360	1.560000e+00	2.500000e+00	5.502923e-03	
1361	1.570000e+00	2.500000e+00	5.513258e-03	
1362	1.580000e+00	2.500000e+00	5.523208e-03	
1363	1.590000e+00	2.500000e+00	5.532778e-03	
1364	1.600000e+00	2.500000e+00	5.541972e-03	
1365	1.610000e+00	2.500000e+00	5.550800e-03	
1366	1.620000e+00	2.500000e+00	5.559268e-03	
1367	1.630000e+00	2.500000e+00	5.567385e-03	
1368	1.640000e+00	2.500000e+00	5.575163e-03	
1369	1.650000e+00	2.500000e+00	5.582612e-03	
1370	1.660000e+00	2.500000e+00	5.589743e-03	
1371	1.670000e+00	2.500000e+00	5.596568e-03	
1372	1.680000e+00	2.500000e+00	5.603099e-03	
1373	1.690000e+00	2.500000e+00	5.609350e-03	
1374	1.700000e+00	2.500000e+00	5.615333e-03	
1375	1.710000e+00	2.500000e+00	5.621060e-03	
1376	1.720000e+00	2.500000e+00	5.626544e-03	
1377	1.730000e+00	2.500000e+00	5.631797e-03	
1378	1.740000e+00	2.500000e+00	5.636832e-03	
1379	1.750000e+00	2.500000e+00	5.641659e-03	
1380	1.760000e+00	2.500000e+00	5.646290e-03	
1381	1.770000e+00	2.500000e+00	5.650735e-03	
1382	1.780000e+00	2.500000e+00	5.655006e-03	
1383	1.790000e+00	2.500000e+00	5.659112e-03	
1384	1.800000e+00	2.500000e+00	5.663062e-03	
1385	1.810000e+00	2.500000e+00	5.666866e-03	
1386	1.820000e+00	2.500000e+00	5.670530e-03	
1387	1.830000e+00	2.500000e+00	5.674065e-03	
1388	1.840000e+00	2.500000e+00	5.677476e-03	

Index   v-sweep         v(g)            vs#branch       
--------------------------------------------------------------------------------
1389	1.850000e+00	2.500000e+00	5.680772e-03	
1390	1.860000e+00	2.500000e+00	5.683958e-03	
1391	1.870000e+00	2.500000e+00	5.687041e-03	
1392	1.880000e+00	2.500000e+00	5.690026e-03	
1393	1.890000e+00	2.500000e+00	5.692920e-03	
1394	1.900000e+00	2.500000e+00	5.695728e-03	
1395	1.910000e+00	2.500000e+00	5.698453e-03	
1396	1.920000e+00	2.500000e+00	5.701101e-03	
1397	1.930000e+00	2.500000e+00	5.703676e-03	
1398	1.940000e+00	2.500000e+00	5.706181e-03	
1399	1.950000e+00	2.500000e+00	5.708622e-03	
1400	1.960000e+00	2.500000e+00	5.711000e-03	
1401	1.970000e+00	2.500000e+00	5.713319e-03	
1402	1.980000e+00	2.500000e+00	5.715583e-03	
1403	1.990000e+00	2.500000e+00	5.717794e-03	
1404	2.000000e+00	2.500000e+00	5.719955e-03	
1405	2.010000e+00	2.500000e+00	5.722069e-03	
1406	2.020000e+00	2.500000e+00	5.724137e-03	
1407	2.030000e+00	2.500000e+00	5.726162e-03	
1408	2.040000e+00	2.500000e+00	5.728147e-03	
1409	2.050000e+00	2.500000e+00	5.730092e-03	
1410	2.060000e+00	2.500000e+00	5.732001e-03	
1411	2.070000e+00	2.500000e+00	5.733874e-03	
1412	2.080000e+00	2.500000e+00	5.735713e-03	
1413	2.090000e+00	2.500000e+00	5.737521e-03	
1414	2.100000e+00	2.500000e+00	5.739298e-03	
1415	2.110000e+00	2.500000e+00	5.741045e-03	
1416	2.120000e+00	2.500000e+00	5.742764e-03	
1417	2.130000e+00	2.500000e+00	5.744457e-03	
1418	2.140000e+00	2.500000e+00	5.746124e-03	
1419	2.150000e+00	2.500000e+00	5.747767e-03	
1420	2.160000e+00	2.500000e+00	5.749386e-03	
1421	2.170000e+00	2.500000e+00	5.750983e-03	
1422	2.180000e+00	2.500000e+00	5.752558e-03	
1423	2.190000e+00	2.500000e+00	5.754113e-03	
1424	2.200000e+00	2.500000e+00	5.755648e-03	
1425	2.210000e+00	2.500000e+00	5.757164e-03	
1426	2.220000e+00	2.500000e+00	5.758661e-03	
1427	2.230000e+00	2.500000e+00	5.760141e-03	
1428	2.240000e+00	2.500000e+00	5.761604e-03	
1429	2.250000e+00	2.500000e+00	5.763051e-03	
1430	2.260000e+00	2.500000e+00	5.764483e-03	
1431	2.270000e+00	2.500000e+00	5.765899e-03	
1432	2.280000e+00	2.500000e+00	5.767301e-03	
1433	2.290000e+00	2.500000e+00	5.768689e-03	
1434	2.300000e+00	2.500000e+00	5.770063e-03	
1435	2.310000e+00	2.500000e+00	5.771425e-03	
1436	2.320000e+00	2.500000e+00	5.772774e-03	
1437	2.330000e+00	2.500000e+00	5.774111e-03	
1438	2.340000e+00	2.500000e+00	5.775436e-03	
1439	2.350000e+00	2.500000e+00	5.776750e-03	
1440	2.360000e+00	2.500000e+00	5.778054e-03	
1441	2.370000e+00	2.500000e+00	5.779347e-03	
1442	2.380000e+00	2.500000e+00	5.780629e-03	
1443	2.390000e+00	2.500000e+00	5.781902e-03	
1444	2.400000e+00	2.500000e+00	5.783166e-03	
1445	2.410000e+00	2.500000e+00	5.784420e-03	
1446	2.420000e+00	2.500000e+00	5.785666e-03	

Index   v-sweep         v(g)            vs#branch       
--------------------------------------------------------------------------------
1447	2.430000e+00	2.500000e+00	5.786902e-03	
1448	2.440000e+00	2.500000e+00	5.788131e-03	
1449	2.450000e+00	2.500000e+00	5.789351e-03	
1450	2.460000e+00	2.500000e+00	5.790564e-03	
1451	2.470000e+00	2.500000e+00	5.791769e-03	
1452	2.480000e+00	2.500000e+00	5.792967e-03	
1453	2.490000e+00	2.500000e+00	5.794158e-03	
1454	2.500000e+00	2.500000e+00	5.795341e-03	
1455	2.510000e+00	2.500000e+00	5.796518e-03	
1456	2.520000e+00	2.500000e+00	5.797689e-03	
1457	2.530000e+00	2.500000e+00	5.798853e-03	
1458	2.540000e+00	2.500000e+00	5.800011e-03	
1459	2.550000e+00	2.500000e+00	5.801163e-03	
1460	2.560000e+00	2.500000e+00	5.802310e-03	
1461	2.570000e+00	2.500000e+00	5.803450e-03	
1462	2.580000e+00	2.500000e+00	5.804586e-03	
1463	2.590000e+00	2.500000e+00	5.805715e-03	
1464	2.600000e+00	2.500000e+00	5.806840e-03	
1465	2.610000e+00	2.500000e+00	5.807960e-03	
1466	2.620000e+00	2.500000e+00	5.809074e-03	
1467	2.630000e+00	2.500000e+00	5.810184e-03	
1468	2.640000e+00	2.500000e+00	5.811290e-03	
1469	2.650000e+00	2.500000e+00	5.812390e-03	
1470	2.660000e+00	2.500000e+00	5.813487e-03	
1471	2.670000e+00	2.500000e+00	5.814579e-03	
1472	2.680000e+00	2.500000e+00	5.815667e-03	
1473	2.690000e+00	2.500000e+00	5.816750e-03	
1474	2.700000e+00	2.500000e+00	5.817830e-03	
1475	2.710000e+00	2.500000e+00	5.818906e-03	
1476	2.720000e+00	2.500000e+00	5.819978e-03	
1477	2.730000e+00	2.500000e+00	5.821047e-03	
1478	2.740000e+00	2.500000e+00	5.822111e-03	
1479	2.750000e+00	2.500000e+00	5.823173e-03	
1480	2.760000e+00	2.500000e+00	5.824231e-03	
1481	2.770000e+00	2.500000e+00	5.825285e-03	
1482	2.780000e+00	2.500000e+00	5.826336e-03	
1483	2.790000e+00	2.500000e+00	5.827384e-03	
1484	2.800000e+00	2.500000e+00	5.828429e-03	
1485	2.810000e+00	2.500000e+00	5.829471e-03	
1486	2.820000e+00	2.500000e+00	5.830510e-03	
1487	2.830000e+00	2.500000e+00	5.831546e-03	
1488	2.840000e+00	2.500000e+00	5.832579e-03	
1489	2.850000e+00	2.500000e+00	5.833609e-03	
1490	2.860000e+00	2.500000e+00	5.834637e-03	
1491	2.870000e+00	2.500000e+00	5.835662e-03	
1492	2.880000e+00	2.500000e+00	5.836684e-03	
1493	2.890000e+00	2.500000e+00	5.837704e-03	
1494	2.900000e+00	2.500000e+00	5.838721e-03	
1495	2.910000e+00	2.500000e+00	5.839736e-03	
1496	2.920000e+00	2.500000e+00	5.840748e-03	
1497	2.930000e+00	2.500000e+00	5.841758e-03	
1498	2.940000e+00	2.500000e+00	5.842766e-03	
1499	2.950000e+00	2.500000e+00	5.843771e-03	
1500	2.960000e+00	2.500000e+00	5.844775e-03	
1501	2.970000e+00	2.500000e+00	5.845776e-03	
1502	2.980000e+00	2.500000e+00	5.846775e-03	
1503	2.990000e+00	2.500000e+00	5.847772e-03	
1504	3.000000e+00	2.500000e+00	5.848767e-03	

Index   v-sweep         v(g)            vs#branch       
--------------------------------------------------------------------------------
1505	0.000000e+00	3.000000e+00	-1.250000e-19	
1506	1.000000e-02	3.000000e+00	6.224150e-05	
1507	2.000000e-02	3.000000e+00	1.241998e-04	
1508	3.000000e-02	3.000000e+00	1.858754e-04	
1509	4.000000e-02	3.000000e+00	2.472685e-04	
1510	5.000000e-02	3.000000e+00	3.083796e-04	
1511	6.000000e-02	3.000000e+00	3.692090e-04	
1512	7.000000e-02	3.000000e+00	4.297570e-04	
1513	8.000000e-02	3.000000e+00	4.900241e-04	
1514	9.000000e-02	3.000000e+00	5.500106e-04	
1515	1.000000e-01	3.000000e+00	6.097168e-04	
1516	1.100000e-01	3.000000e+00	6.691432e-04	
1517	1.200000e-01	3.000000e+00	7.282900e-04	
1518	1.300000e-01	3.000000e+00	7.871577e-04	
1519	1.400000e-01	3.000000e+00	8.457466e-04	
1520	1.500000e-01	3.000000e+00	9.040571e-04	
1521	1.600000e-01	3.000000e+00	9.620894e-04	
1522	1.700000e-01	3.000000e+00	1.019844e-03	
1523	1.800000e-01	3.000000e+00	1.077321e-03	
1524	1.900000e-01	3.000000e+00	1.134522e-03	
1525	2.000000e-01	3.000000e+00	1.191445e-03	
1526	2.100000e-01	3.000000e+00	1.248093e-03	
1527	2.200000e-01	3.000000e+00	1.304464e-03	
1528	2.300000e-01	3.000000e+00	1.360560e-03	
1529	2.400000e-01	3.000000e+00	1.416380e-03	
1530	2.500000e-01	3.000000e+00	1.471926e-03	
1531	2.600000e-01	3.000000e+00	1.527197e-03	
1532	2.700000e-01	3.000000e+00	1.582194e-03	
1533	2.800000e-01	3.000000e+00	1.636917e-03	
1534	2.900000e-01	3.000000e+00	1.691367e-03	
1535	3.000000e-01	3.000000e+00	1.745543e-03	
1536	3.100000e-01	3.000000e+00	1.799447e-03	
1537	3.200000e-01	3.000000e+00	1.853078e-03	
1538	3.300000e-01	3.000000e+00	1.906437e-03	
1539	3.400000e-01	3.000000e+00	1.959525e-03	
1540	3.500000e-01	3.000000e+00	2.012341e-03	
1541	3.600000e-01	3.000000e+00	2.064886e-03	
1542	3.700000e-01	3.000000e+00	2.117160e-03	
1543	3.800000e-01	3.000000e+00	2.169164e-03	
1544	3.900000e-01	3.000000e+00	2.220898e-03	
1545	4.000000e-01	3.000000e+00	2.272362e-03	
1546	4.100000e-01	3.000000e+00	2.323556e-03	
1547	4.200000e-01	3.000000e+00	2.374482e-03	
1548	4.300000e-01	3.000000e+00	2.425139e-03	
1549	4.400000e-01	3.000000e+00	2.475528e-03	
1550	4.500000e-01	3.000000e+00	2.525649e-03	
1551	4.600000e-01	3.000000e+00	2.575502e-03	
1552	4.700000e-01	3.000000e+00	2.625087e-03	
1553	4.800000e-01	3.000000e+00	2.674406e-03	
1554	4.900000e-01	3.000000e+00	2.723458e-03	
1555	5.000000e-01	3.000000e+00	2.772244e-03	
1556	5.100000e-01	3.000000e+00	2.820764e-03	
1557	5.200000e-01	3.000000e+00	2.869018e-03	
1558	5.300000e-01	3.000000e+00	2.917007e-03	
1559	5.400000e-01	3.000000e+00	2.964730e-03	
1560	5.500000e-01	3.000000e+00	3.012189e-03	
1561	5.600000e-01	3.000000e+00	3.059384e-03	
1562	5.700000e-01	3.000000e+00	3.106315e-03	

Index   v-sweep         v(g)            vs#branch       
--------------------------------------------------------------------------------
1563	5.800000e-01	3.000000e+00	3.152982e-03	
1564	5.900000e-01	3.000000e+00	3.199386e-03	
1565	6.000000e-01	3.000000e+00	3.245526e-03	
1566	6.100000e-01	3.000000e+00	3.291404e-03	
1567	6.200000e-01	3.000000e+00	3.337020e-03	
1568	6.300000e-01	3.000000e+00	3.382373e-03	
1569	6.400000e-01	3.000000e+00	3.427465e-03	
1570	6.500000e-01	3.000000e+00	3.472295e-03	
1571	6.600000e-01	3.000000e+00	3.516864e-03	
1572	6.700000e-01	3.000000e+00	3.561172e-03	
1573	6.800000e-01	3.000000e+00	3.605220e-03	
1574	6.900000e-01	3.000000e+00	3.649008e-03	
1575	7.000000e-01	3.000000e+00	3.692535e-03	
1576	7.100000e-01	3.000000e+00	3.735804e-03	
1577	7.200000e-01	3.000000e+00	3.778813e-03	
1578	7.300000e-01	3.000000e+00	3.821563e-03	
1579	7.400000e-01	3.000000e+00	3.864054e-03	
1580	7.500000e-01	3.000000e+00	3.906287e-03	
1581	7.600000e-01	3.000000e+00	3.948263e-03	
1582	7.700000e-01	3.000000e+00	3.989980e-03	
1583	7.800000e-01	3.000000e+00	4.031440e-03	
1584	7.900000e-01	3.000000e+00	4.072643e-03	
1585	8.000000e-01	3.000000e+00	4.113589e-03	
1586	8.100000e-01	3.000000e+00	4.154279e-03	
1587	8.200000e-01	3.000000e+00	4.194712e-03	
1588	8.300000e-01	3.000000e+00	4.234890e-03	
1589	8.400000e-01	3.000000e+00	4.274812e-03	
1590	8.500000e-01	3.000000e+00	4.314478e-03	
1591	8.600000e-01	3.000000e+00	4.353890e-03	
1592	8.700000e-01	3.000000e+00	4.393047e-03	
1593	8.800000e-01	3.000000e+00	4.431949e-03	
1594	8.900000e-01	3.000000e+00	4.470598e-03	
1595	9.000000e-01	3.000000e+00	4.508992e-03	
1596	9.100000e-01	3.000000e+00	4.547133e-03	
1597	9.200000e-01	3.000000e+00	4.585020e-03	
1598	9.300000e-01	3.000000e+00	4.622655e-03	
1599	9.400000e-01	3.000000e+00	4.660036e-03	
1600	9.500000e-01	3.000000e+00	4.697165e-03	
1601	9.600000e-01	3.000000e+00	4.734042e-03	
1602	9.700000e-01	3.000000e+00	4.770667e-03	
1603	9.800000e-01	3.000000e+00	4.807040e-03	
1604	9.900000e-01	3.000000e+00	4.843162e-03	
1605	1.000000e+00	3.000000e+00	4.879032e-03	
1606	1.010000e+00	3.000000e+00	4.914652e-03	
1607	1.020000e+00	3.000000e+00	4.950021e-03	
1608	1.030000e+00	3.000000e+00	4.985139e-03	
1609	1.040000e+00	3.000000e+00	5.020007e-03	
1610	1.050000e+00	3.000000e+00	5.054625e-03	
1611	1.060000e+00	3.000000e+00	5.088994e-03	
1612	1.070000e+00	3.000000e+00	5.123113e-03	
1613	1.080000e+00	3.000000e+00	5.156982e-03	
1614	1.090000e+00	3.000000e+00	5.190603e-03	
1615	1.100000e+00	3.000000e+00	5.223975e-03	
1616	1.110000e+00	3.000000e+00	5.257098e-03	
1617	1.120000e+00	3.000000e+00	5.289972e-03	
1618	1.130000e+00	3.000000e+00	5.322598e-03	
1619	1.140000e+00	3.000000e+00	5.354977e-03	
1620	1.150000e+00	3.000000e+00	5.387107e-03	

Index   v-sweep         v(g)            vs#branch       
--------------------------------------------------------------------------------
1621	1.160000e+00	3.000000e+00	5.418989e-03	
1622	1.170000e+00	3.000000e+00	5.450624e-03	
1623	1.180000e+00	3.000000e+00	5.482012e-03	
1624	1.190000e+00	3.000000e+00	5.513152e-03	
1625	1.200000e+00	3.000000e+00	5.544045e-03	
1626	1.210000e+00	3.000000e+00	5.574691e-03	
1627	1.220000e+00	3.000000e+00	5.605091e-03	
1628	1.230000e+00	3.000000e+00	5.635243e-03	
1629	1.240000e+00	3.000000e+00	5.665149e-03	
1630	1.250000e+00	3.000000e+00	5.694808e-03	
1631	1.260000e+00	3.000000e+00	5.724221e-03	
1632	1.270000e+00	3.000000e+00	5.753387e-03	
1633	1.280000e+00	3.000000e+00	5.782307e-03	
1634	1.290000e+00	3.000000e+00	5.810980e-03	
1635	1.300000e+00	3.000000e+00	5.839407e-03	
1636	1.310000e+00	3.000000e+00	5.867588e-03	
1637	1.320000e+00	3.000000e+00	5.895522e-03	
1638	1.330000e+00	3.000000e+00	5.923209e-03	
1639	1.340000e+00	3.000000e+00	5.950650e-03	
1640	1.350000e+00	3.000000e+00	5.977845e-03	
1641	1.360000e+00	3.000000e+00	6.004792e-03	
1642	1.370000e+00	3.000000e+00	6.031492e-03	
1643	1.380000e+00	3.000000e+00	6.057945e-03	
1644	1.390000e+00	3.000000e+00	6.084151e-03	
1645	1.400000e+00	3.000000e+00	6.110109e-03	
1646	1.410000e+00	3.000000e+00	6.135819e-03	
1647	1.420000e+00	3.000000e+00	6.161280e-03	
1648	1.430000e+00	3.000000e+00	6.186493e-03	
1649	1.440000e+00	3.000000e+00	6.211457e-03	
1650	1.450000e+00	3.000000e+00	6.236171e-03	
1651	1.460000e+00	3.000000e+00	6.260635e-03	
1652	1.470000e+00	3.000000e+00	6.284848e-03	
1653	1.480000e+00	3.000000e+00	6.308810e-03	
1654	1.490000e+00	3.000000e+00	6.332519e-03	
1655	1.500000e+00	3.000000e+00	6.355976e-03	
1656	1.510000e+00	3.000000e+00	6.379179e-03	
1657	1.520000e+00	3.000000e+00	6.402127e-03	
1658	1.530000e+00	3.000000e+00	6.424819e-03	
1659	1.540000e+00	3.000000e+00	6.447254e-03	
1660	1.550000e+00	3.000000e+00	6.469431e-03	
1661	1.560000e+00	3.000000e+00	6.491349e-03	
1662	1.570000e+00	3.000000e+00	6.513006e-03	
1663	1.580000e+00	3.000000e+00	6.534400e-03	
1664	1.590000e+00	3.000000e+00	6.555530e-03	
1665	1.600000e+00	3.000000e+00	6.576393e-03	
1666	1.610000e+00	3.000000e+00	6.596989e-03	
1667	1.620000e+00	3.000000e+00	6.617314e-03	
1668	1.630000e+00	3.000000e+00	6.637367e-03	
1669	1.640000e+00	3.000000e+00	6.657144e-03	
1670	1.650000e+00	3.000000e+00	6.676644e-03	
1671	1.660000e+00	3.000000e+00	6.695864e-03	
1672	1.670000e+00	3.000000e+00	6.714799e-03	
1673	1.680000e+00	3.000000e+00	6.733448e-03	
1674	1.690000e+00	3.000000e+00	6.751806e-03	
1675	1.700000e+00	3.000000e+00	6.769871e-03	
1676	1.710000e+00	3.000000e+00	6.787638e-03	
1677	1.720000e+00	3.000000e+00	6.805103e-03	
1678	1.730000e+00	3.000000e+00	6.822262e-03	

Index   v-sweep         v(g)            vs#branch       
--------------------------------------------------------------------------------
1679	1.740000e+00	3.000000e+00	6.839111e-03	
1680	1.750000e+00	3.000000e+00	6.855645e-03	
1681	1.760000e+00	3.000000e+00	6.871859e-03	
1682	1.770000e+00	3.000000e+00	6.887749e-03	
1683	1.780000e+00	3.000000e+00	6.903311e-03	
1684	1.790000e+00	3.000000e+00	6.918539e-03	
1685	1.800000e+00	3.000000e+00	6.933428e-03	
1686	1.810000e+00	3.000000e+00	6.947975e-03	
1687	1.820000e+00	3.000000e+00	6.962175e-03	
1688	1.830000e+00	3.000000e+00	6.976023e-03	
1689	1.840000e+00	3.000000e+00	6.989515e-03	
1690	1.850000e+00	3.000000e+00	7.002650e-03	
1691	1.860000e+00	3.000000e+00	7.015423e-03	
1692	1.870000e+00	3.000000e+00	7.027832e-03	
1693	1.880000e+00	3.000000e+00	7.039877e-03	
1694	1.890000e+00	3.000000e+00	7.051556e-03	
1695	1.900000e+00	3.000000e+00	7.062869e-03	
1696	1.910000e+00	3.000000e+00	7.073818e-03	
1697	1.920000e+00	3.000000e+00	7.084404e-03	
1698	1.930000e+00	3.000000e+00	7.094631e-03	
1699	1.940000e+00	3.000000e+00	7.104502e-03	
1700	1.950000e+00	3.000000e+00	7.114023e-03	
1701	1.960000e+00	3.000000e+00	7.123198e-03	
1702	1.970000e+00	3.000000e+00	7.132036e-03	
1703	1.980000e+00	3.000000e+00	7.140543e-03	
1704	1.990000e+00	3.000000e+00	7.148727e-03	
1705	2.000000e+00	3.000000e+00	7.156598e-03	
1706	2.010000e+00	3.000000e+00	7.164166e-03	
1707	2.020000e+00	3.000000e+00	7.171439e-03	
1708	2.030000e+00	3.000000e+00	7.178428e-03	
1709	2.040000e+00	3.000000e+00	7.185144e-03	
1710	2.050000e+00	3.000000e+00	7.191598e-03	
1711	2.060000e+00	3.000000e+00	7.197799e-03	
1712	2.070000e+00	3.000000e+00	7.203760e-03	
1713	2.080000e+00	3.000000e+00	7.209490e-03	
1714	2.090000e+00	3.000000e+00	7.215000e-03	
1715	2.100000e+00	3.000000e+00	7.220300e-03	
1716	2.110000e+00	3.000000e+00	7.225400e-03	
1717	2.120000e+00	3.000000e+00	7.230311e-03	
1718	2.130000e+00	3.000000e+00	7.235040e-03	
1719	2.140000e+00	3.000000e+00	7.239598e-03	
1720	2.150000e+00	3.000000e+00	7.243992e-03	
1721	2.160000e+00	3.000000e+00	7.248232e-03	
1722	2.170000e+00	3.000000e+00	7.252326e-03	
1723	2.180000e+00	3.000000e+00	7.256280e-03	
1724	2.190000e+00	3.000000e+00	7.260102e-03	
1725	2.200000e+00	3.000000e+00	7.263798e-03	
1726	2.210000e+00	3.000000e+00	7.267376e-03	
1727	2.220000e+00	3.000000e+00	7.270842e-03	
1728	2.230000e+00	3.000000e+00	7.274200e-03	
1729	2.240000e+00	3.000000e+00	7.277458e-03	
1730	2.250000e+00	3.000000e+00	7.280619e-03	
1731	2.260000e+00	3.000000e+00	7.283690e-03	
1732	2.270000e+00	3.000000e+00	7.286673e-03	
1733	2.280000e+00	3.000000e+00	7.289575e-03	
1734	2.290000e+00	3.000000e+00	7.292398e-03	
1735	2.300000e+00	3.000000e+00	7.295148e-03	
1736	2.310000e+00	3.000000e+00	7.297827e-03	

Index   v-sweep         v(g)            vs#branch       
--------------------------------------------------------------------------------
1737	2.320000e+00	3.000000e+00	7.300439e-03	
1738	2.330000e+00	3.000000e+00	7.302987e-03	
1739	2.340000e+00	3.000000e+00	7.305474e-03	
1740	2.350000e+00	3.000000e+00	7.307904e-03	
1741	2.360000e+00	3.000000e+00	7.310279e-03	
1742	2.370000e+00	3.000000e+00	7.312601e-03	
1743	2.380000e+00	3.000000e+00	7.314873e-03	
1744	2.390000e+00	3.000000e+00	7.317097e-03	
1745	2.400000e+00	3.000000e+00	7.319276e-03	
1746	2.410000e+00	3.000000e+00	7.321412e-03	
1747	2.420000e+00	3.000000e+00	7.323506e-03	
1748	2.430000e+00	3.000000e+00	7.325560e-03	
1749	2.440000e+00	3.000000e+00	7.327576e-03	
1750	2.450000e+00	3.000000e+00	7.329556e-03	
1751	2.460000e+00	3.000000e+00	7.331501e-03	
1752	2.470000e+00	3.000000e+00	7.333413e-03	
1753	2.480000e+00	3.000000e+00	7.335293e-03	
1754	2.490000e+00	3.000000e+00	7.337143e-03	
1755	2.500000e+00	3.000000e+00	7.338963e-03	
1756	2.510000e+00	3.000000e+00	7.340755e-03	
1757	2.520000e+00	3.000000e+00	7.342520e-03	
1758	2.530000e+00	3.000000e+00	7.344259e-03	
1759	2.540000e+00	3.000000e+00	7.345973e-03	
1760	2.550000e+00	3.000000e+00	7.347663e-03	
1761	2.560000e+00	3.000000e+00	7.349331e-03	
1762	2.570000e+00	3.000000e+00	7.350976e-03	
1763	2.580000e+00	3.000000e+00	7.352600e-03	
1764	2.590000e+00	3.000000e+00	7.354203e-03	
1765	2.600000e+00	3.000000e+00	7.355787e-03	
1766	2.610000e+00	3.000000e+00	7.357352e-03	
1767	2.620000e+00	3.000000e+00	7.358898e-03	
1768	2.630000e+00	3.000000e+00	7.360427e-03	
1769	2.640000e+00	3.000000e+00	7.361939e-03	
1770	2.650000e+00	3.000000e+00	7.363434e-03	
1771	2.660000e+00	3.000000e+00	7.364913e-03	
1772	2.670000e+00	3.000000e+00	7.366377e-03	
1773	2.680000e+00	3.000000e+00	7.367827e-03	
1774	2.690000e+00	3.000000e+00	7.369262e-03	
1775	2.700000e+00	3.000000e+00	7.370683e-03	
1776	2.710000e+00	3.000000e+00	7.372091e-03	
1777	2.720000e+00	3.000000e+00	7.373486e-03	
1778	2.730000e+00	3.000000e+00	7.374869e-03	
1779	2.740000e+00	3.000000e+00	7.376239e-03	
1780	2.750000e+00	3.000000e+00	7.377598e-03	
1781	2.760000e+00	3.000000e+00	7.378945e-03	
1782	2.770000e+00	3.000000e+00	7.380282e-03	
1783	2.780000e+00	3.000000e+00	7.381608e-03	
1784	2.790000e+00	3.000000e+00	7.382923e-03	
1785	2.800000e+00	3.000000e+00	7.384229e-03	
1786	2.810000e+00	3.000000e+00	7.385524e-03	
1787	2.820000e+00	3.000000e+00	7.386811e-03	
1788	2.830000e+00	3.000000e+00	7.388088e-03	
1789	2.840000e+00	3.000000e+00	7.389356e-03	
1790	2.850000e+00	3.000000e+00	7.390616e-03	
1791	2.860000e+00	3.000000e+00	7.391868e-03	
1792	2.870000e+00	3.000000e+00	7.393111e-03	
1793	2.880000e+00	3.000000e+00	7.394347e-03	
1794	2.890000e+00	3.000000e+00	7.395575e-03	

Index   v-sweep         v(g)            vs#branch       
--------------------------------------------------------------------------------
1795	2.900000e+00	3.000000e+00	7.396795e-03	
1796	2.910000e+00	3.000000e+00	7.398008e-03	
1797	2.920000e+00	3.000000e+00	7.399214e-03	
1798	2.930000e+00	3.000000e+00	7.400413e-03	
1799	2.940000e+00	3.000000e+00	7.401606e-03	
1800	2.950000e+00	3.000000e+00	7.402792e-03	
1801	2.960000e+00	3.000000e+00	7.403972e-03	
1802	2.970000e+00	3.000000e+00	7.405145e-03	
1803	2.980000e+00	3.000000e+00	7.406313e-03	
1804	2.990000e+00	3.000000e+00	7.407475e-03	
1805	3.000000e+00	3.000000e+00	7.408631e-03	




