Warning: premature EOF

Circuit: *model = BSIMSOI

