
No. of Data Rows : 1359

Circuit: *model = BSIMSOI (FD)

Error on line 3 : .model n1  nmos level= 55  tnom = 27        tox = 4.5e-09    tsi = 5e-8       tbox = 8e-08             mobmod = 0       capmod = 3       shmod = 0 paramchk=0       wint = 0         lint = -2e-08     vth0 = .52       k1 = .39         k2 = .1          k3 = 0         kb1 = .95        k3b = 2.2        nlx = 7.2e-08            dvt0 = .55       dvt1 = .28       dvt2 = -1.4 dvt0w = 0        dvt1w = 0        dvt2w = 0      nch   = 3.3e+17  nsub = 1e+15     ngate = 1e+20                dvbd0 = 60.0     dvbd1 = 1.1      vbsa = 0.0               kb3 = 2.2        delp = 0.02              abp = 0.9        mxc = 0.9        adice0 = 0.93 kbjt1 = 1.0e-08  edl = .0000005 ndiode = 1.13    ntun = 14.0      isbjt = 2e-6     isdif = 1e-6      istun = 0.0     isrec = 1e-5 xbjt = 0.01      xdif = 0.01      xrec = 0.01      xtun = 0.001                u0 = 352         ua = 1.3e-11     ub = 1.7e-18     uc = -4e-10              w0 = 1.16e-06    ags = .25        a1 = 0           a2 = 1         b0 = .01         b1 = 10 rdsw = 700       prwg = 0         prwb = -.2       wr = 1         rbody = 0.0      rbsh = 0.0 a0 = 1.4         keta = -.67      vsat = 135000 dwg = 0          dwb = 0    alpha0 = 0.0     alpha1 = 1.5     beta0 = 20.5 aii = 1.2        bii = 0.1e-7     cii = 0.8        dii = 0.6 voff = -.14      nfactor = .7     cdsc = .00002    cdscb    = 0                 cdscd = 0        cit = 0                 pclm = 2.9       pvag = 12        pdiblc1 = .18    pdiblc2 = .004               pdiblcb = -.234  drout = .2        delta = .01      eta0 = .01       etab = 0    dsub = .3        rth0 94    = .006 clc = .0000001   cle = .6         cf = 1e-20       ckappa = .6                cgdl = 1e-20     cgsl = 1e-20     kt1 = -.3        kt1l = 0                 kt2 = .022       ute = -1.5       ua1 = 4.31e-09   ub1 = -7.61e-18          uc1 = -5.6e-11   prt = 760        at = 22400              cgso = 1e-10     cgdo = 1e-10     cjswg = 5e-10    tt=3e-10 asd = 0.3        csdesw = 1e-12   
Doing analysis at TEMP = 300.150000 and TNOM = 300.150000
Warning: Pd = 0 is less than W.
Warning: Ps = 0 is less than W.
                             *model = BSIMSOI (FD)
--------------------------------------------------------------------------------
Index   v-sweep         vs#branch       
--------------------------------------------------------------------------------
0	0.000000e+00	3.802857e-12	
1	1.000000e-02	5.179405e-12	
2	2.000000e-02	7.840940e-12	
3	3.000000e-02	1.125575e-11	
4	4.000000e-02	1.615433e-11	
5	5.000000e-02	2.317943e-11	
6	6.000000e-02	3.325101e-11	
7	7.000000e-02	4.768511e-11	
8	8.000000e-02	6.836303e-11	
9	9.000000e-02	9.797210e-11	
10	1.000000e-01	1.403476e-10	
11	1.100000e-01	2.009572e-10	
12	1.200000e-01	2.875868e-10	
13	1.300000e-01	4.113064e-10	
14	1.400000e-01	5.878303e-10	
15	1.500000e-01	8.394210e-10	
16	1.600000e-01	1.197526e-09	
17	1.700000e-01	1.706327e-09	
18	1.800000e-01	2.427883e-09	
19	1.900000e-01	3.448995e-09	
20	2.000000e-01	4.890513e-09	
21	2.100000e-01	6.919840e-09	
22	2.200000e-01	9.767530e-09	
23	2.300000e-01	1.374902e-08	
24	2.400000e-01	1.929264e-08	
25	2.500000e-01	2.697515e-08	
26	2.600000e-01	3.756591e-08	
27	2.700000e-01	5.208067e-08	
28	2.800000e-01	7.184554e-08	
29	2.900000e-01	9.857148e-08	
30	3.000000e-01	1.344389e-07	
31	3.100000e-01	1.821917e-07	
32	3.200000e-01	2.452412e-07	
33	3.300000e-01	3.277779e-07	
34	3.400000e-01	4.348938e-07	
35	3.500000e-01	5.727141e-07	
36	3.600000e-01	7.485378e-07	
37	3.700000e-01	9.709820e-07	
38	3.800000e-01	1.250117e-06	
39	3.900000e-01	1.597567e-06	
40	4.000000e-01	2.026526e-06	
41	4.100000e-01	2.551636e-06	
42	4.200000e-01	3.188614e-06	
43	4.300000e-01	3.953476e-06	
44	4.400000e-01	4.861015e-06	
45	4.500000e-01	5.921696e-06	
46	4.600000e-01	7.136545e-06	
47	4.700000e-01	8.498437e-06	
48	4.800000e-01	1.000774e-05	
49	4.900000e-01	1.167295e-05	
50	5.000000e-01	1.349892e-05	
51	5.100000e-01	1.548464e-05	
52	5.200000e-01	1.762458e-05	
53	5.300000e-01	1.990991e-05	
54	5.400000e-01	2.232939e-05	

Index   v-sweep         vs#branch       
--------------------------------------------------------------------------------
55	5.500000e-01	2.487011e-05	
56	5.600000e-01	2.751817e-05	
57	5.700000e-01	3.025929e-05	
58	5.800000e-01	3.307926e-05	
59	5.900000e-01	3.596440e-05	
60	6.000000e-01	3.890180e-05	
61	6.100000e-01	4.187952e-05	
62	6.200000e-01	4.488673e-05	
63	6.300000e-01	4.791372e-05	
64	6.400000e-01	5.095195e-05	
65	6.500000e-01	5.399391e-05	
66	6.600000e-01	5.703316e-05	
67	6.700000e-01	6.006416e-05	
68	6.800000e-01	6.308222e-05	
69	6.900000e-01	6.608341e-05	
70	7.000000e-01	6.906444e-05	
71	7.100000e-01	7.202261e-05	
72	7.200000e-01	7.495570e-05	
73	7.300000e-01	7.786194e-05	
74	7.400000e-01	8.073988e-05	
75	7.500000e-01	8.358843e-05	
76	7.600000e-01	8.640672e-05	
77	7.700000e-01	8.919413e-05	
78	7.800000e-01	9.195019e-05	
79	7.900000e-01	9.467463e-05	
80	8.000000e-01	9.736726e-05	
81	8.100000e-01	1.000280e-04	
82	8.200000e-01	1.026569e-04	
83	8.300000e-01	1.052541e-04	
84	8.400000e-01	1.078197e-04	
85	8.500000e-01	1.103539e-04	
86	8.600000e-01	1.128570e-04	
87	8.700000e-01	1.153293e-04	
88	8.800000e-01	1.177710e-04	
89	8.900000e-01	1.201824e-04	
90	9.000000e-01	1.225640e-04	
91	9.100000e-01	1.249160e-04	
92	9.200000e-01	1.272388e-04	
93	9.300000e-01	1.295329e-04	
94	9.400000e-01	1.317985e-04	
95	9.500000e-01	1.340360e-04	
96	9.600000e-01	1.362458e-04	
97	9.700000e-01	1.384283e-04	
98	9.800000e-01	1.405838e-04	
99	9.900000e-01	1.427128e-04	
100	1.000000e+00	1.448155e-04	
101	1.010000e+00	1.468924e-04	
102	1.020000e+00	1.489438e-04	
103	1.030000e+00	1.509700e-04	
104	1.040000e+00	1.529715e-04	
105	1.050000e+00	1.549486e-04	
106	1.060000e+00	1.569015e-04	
107	1.070000e+00	1.588307e-04	
108	1.080000e+00	1.607365e-04	
109	1.090000e+00	1.626192e-04	
110	1.100000e+00	1.644792e-04	
111	1.110000e+00	1.663167e-04	
112	1.120000e+00	1.681320e-04	

Index   v-sweep         vs#branch       
--------------------------------------------------------------------------------
113	1.130000e+00	1.699256e-04	
114	1.140000e+00	1.716977e-04	
115	1.150000e+00	1.734485e-04	
116	1.160000e+00	1.751784e-04	
117	1.170000e+00	1.768877e-04	
118	1.180000e+00	1.785767e-04	
119	1.190000e+00	1.802456e-04	
120	1.200000e+00	1.818947e-04	
121	1.210000e+00	1.835244e-04	
122	1.220000e+00	1.851347e-04	
123	1.230000e+00	1.867262e-04	
124	1.240000e+00	1.882988e-04	
125	1.250000e+00	1.898531e-04	
126	1.260000e+00	1.913891e-04	
127	1.270000e+00	1.929072e-04	
128	1.280000e+00	1.944075e-04	
129	1.290000e+00	1.958904e-04	
130	1.300000e+00	1.973560e-04	
131	1.310000e+00	1.988046e-04	
132	1.320000e+00	2.002365e-04	
133	1.330000e+00	2.016517e-04	
134	1.340000e+00	2.030506e-04	
135	1.350000e+00	2.044334e-04	
136	1.360000e+00	2.058003e-04	
137	1.370000e+00	2.071515e-04	
138	1.380000e+00	2.084872e-04	
139	1.390000e+00	2.098076e-04	
140	1.400000e+00	2.111129e-04	
141	1.410000e+00	2.124033e-04	
142	1.420000e+00	2.136790e-04	
143	1.430000e+00	2.149402e-04	
144	1.440000e+00	2.161871e-04	
145	1.450000e+00	2.174198e-04	
146	1.460000e+00	2.186386e-04	
147	1.470000e+00	2.198436e-04	
148	1.480000e+00	2.210349e-04	
149	1.490000e+00	2.222129e-04	
150	1.500000e+00	2.233776e-04	
151	0.000000e+00	3.802857e-12	
152	1.000000e-02	5.179405e-12	
153	2.000000e-02	7.840940e-12	
154	3.000000e-02	1.125575e-11	
155	4.000000e-02	1.615433e-11	
156	5.000000e-02	2.317943e-11	
157	6.000000e-02	3.325101e-11	
158	7.000000e-02	4.768511e-11	
159	8.000000e-02	6.836303e-11	
160	9.000000e-02	9.797210e-11	
161	1.000000e-01	1.403476e-10	
162	1.100000e-01	2.009572e-10	
163	1.200000e-01	2.875868e-10	
164	1.300000e-01	4.113064e-10	
165	1.400000e-01	5.878303e-10	
166	1.500000e-01	8.394210e-10	
167	1.600000e-01	1.197526e-09	
168	1.700000e-01	1.706327e-09	
169	1.800000e-01	2.427883e-09	
170	1.900000e-01	3.448995e-09	

Index   v-sweep         vs#branch       
--------------------------------------------------------------------------------
171	2.000000e-01	4.890513e-09	
172	2.100000e-01	6.919840e-09	
173	2.200000e-01	9.767530e-09	
174	2.300000e-01	1.374902e-08	
175	2.400000e-01	1.929264e-08	
176	2.500000e-01	2.697515e-08	
177	2.600000e-01	3.756591e-08	
178	2.700000e-01	5.208067e-08	
179	2.800000e-01	7.184554e-08	
180	2.900000e-01	9.857148e-08	
181	3.000000e-01	1.344389e-07	
182	3.100000e-01	1.821917e-07	
183	3.200000e-01	2.452412e-07	
184	3.300000e-01	3.277779e-07	
185	3.400000e-01	4.348938e-07	
186	3.500000e-01	5.727141e-07	
187	3.600000e-01	7.485378e-07	
188	3.700000e-01	9.709820e-07	
189	3.800000e-01	1.250117e-06	
190	3.900000e-01	1.597567e-06	
191	4.000000e-01	2.026526e-06	
192	4.100000e-01	2.551636e-06	
193	4.200000e-01	3.188614e-06	
194	4.300000e-01	3.953476e-06	
195	4.400000e-01	4.861015e-06	
196	4.500000e-01	5.921696e-06	
197	4.600000e-01	7.136545e-06	
198	4.700000e-01	8.498437e-06	
199	4.800000e-01	1.000774e-05	
200	4.900000e-01	1.167295e-05	
201	5.000000e-01	1.349892e-05	
202	5.100000e-01	1.548464e-05	
203	5.200000e-01	1.762458e-05	
204	5.300000e-01	1.990991e-05	
205	5.400000e-01	2.232939e-05	
206	5.500000e-01	2.487011e-05	
207	5.600000e-01	2.751817e-05	
208	5.700000e-01	3.025929e-05	
209	5.800000e-01	3.307926e-05	
210	5.900000e-01	3.596440e-05	
211	6.000000e-01	3.890180e-05	
212	6.100000e-01	4.187952e-05	
213	6.200000e-01	4.488673e-05	
214	6.300000e-01	4.791372e-05	
215	6.400000e-01	5.095195e-05	
216	6.500000e-01	5.399391e-05	
217	6.600000e-01	5.703316e-05	
218	6.700000e-01	6.006416e-05	
219	6.800000e-01	6.308222e-05	
220	6.900000e-01	6.608341e-05	
221	7.000000e-01	6.906444e-05	
222	7.100000e-01	7.202261e-05	
223	7.200000e-01	7.495570e-05	
224	7.300000e-01	7.786194e-05	
225	7.400000e-01	8.073988e-05	
226	7.500000e-01	8.358843e-05	
227	7.600000e-01	8.640672e-05	
228	7.700000e-01	8.919413e-05	

Index   v-sweep         vs#branch       
--------------------------------------------------------------------------------
229	7.800000e-01	9.195019e-05	
230	7.900000e-01	9.467463e-05	
231	8.000000e-01	9.736726e-05	
232	8.100000e-01	1.000280e-04	
233	8.200000e-01	1.026569e-04	
234	8.300000e-01	1.052541e-04	
235	8.400000e-01	1.078197e-04	
236	8.500000e-01	1.103539e-04	
237	8.600000e-01	1.128570e-04	
238	8.700000e-01	1.153293e-04	
239	8.800000e-01	1.177710e-04	
240	8.900000e-01	1.201824e-04	
241	9.000000e-01	1.225640e-04	
242	9.100000e-01	1.249160e-04	
243	9.200000e-01	1.272388e-04	
244	9.300000e-01	1.295329e-04	
245	9.400000e-01	1.317985e-04	
246	9.500000e-01	1.340360e-04	
247	9.600000e-01	1.362458e-04	
248	9.700000e-01	1.384283e-04	
249	9.800000e-01	1.405838e-04	
250	9.900000e-01	1.427128e-04	
251	1.000000e+00	1.448155e-04	
252	1.010000e+00	1.468924e-04	
253	1.020000e+00	1.489438e-04	
254	1.030000e+00	1.509700e-04	
255	1.040000e+00	1.529715e-04	
256	1.050000e+00	1.549486e-04	
257	1.060000e+00	1.569015e-04	
258	1.070000e+00	1.588307e-04	
259	1.080000e+00	1.607365e-04	
260	1.090000e+00	1.626192e-04	
261	1.100000e+00	1.644792e-04	
262	1.110000e+00	1.663167e-04	
263	1.120000e+00	1.681320e-04	
264	1.130000e+00	1.699256e-04	
265	1.140000e+00	1.716977e-04	
266	1.150000e+00	1.734485e-04	
267	1.160000e+00	1.751784e-04	
268	1.170000e+00	1.768877e-04	
269	1.180000e+00	1.785767e-04	
270	1.190000e+00	1.802456e-04	
271	1.200000e+00	1.818947e-04	
272	1.210000e+00	1.835244e-04	
273	1.220000e+00	1.851347e-04	
274	1.230000e+00	1.867262e-04	
275	1.240000e+00	1.882988e-04	
276	1.250000e+00	1.898531e-04	
277	1.260000e+00	1.913891e-04	
278	1.270000e+00	1.929072e-04	
279	1.280000e+00	1.944075e-04	
280	1.290000e+00	1.958904e-04	
281	1.300000e+00	1.973560e-04	
282	1.310000e+00	1.988046e-04	
283	1.320000e+00	2.002365e-04	
284	1.330000e+00	2.016517e-04	
285	1.340000e+00	2.030506e-04	
286	1.350000e+00	2.044334e-04	

Index   v-sweep         vs#branch       
--------------------------------------------------------------------------------
287	1.360000e+00	2.058003e-04	
288	1.370000e+00	2.071515e-04	
289	1.380000e+00	2.084872e-04	
290	1.390000e+00	2.098076e-04	
291	1.400000e+00	2.111129e-04	
292	1.410000e+00	2.124033e-04	
293	1.420000e+00	2.136790e-04	
294	1.430000e+00	2.149402e-04	
295	1.440000e+00	2.161871e-04	
296	1.450000e+00	2.174198e-04	
297	1.460000e+00	2.186386e-04	
298	1.470000e+00	2.198436e-04	
299	1.480000e+00	2.210349e-04	
300	1.490000e+00	2.222129e-04	
301	1.500000e+00	2.233776e-04	
302	0.000000e+00	3.802857e-12	
303	1.000000e-02	5.179405e-12	
304	2.000000e-02	7.840940e-12	
305	3.000000e-02	1.125575e-11	
306	4.000000e-02	1.615433e-11	
307	5.000000e-02	2.317943e-11	
308	6.000000e-02	3.325101e-11	
309	7.000000e-02	4.768511e-11	
310	8.000000e-02	6.836303e-11	
311	9.000000e-02	9.797210e-11	
312	1.000000e-01	1.403476e-10	
313	1.100000e-01	2.009572e-10	
314	1.200000e-01	2.875868e-10	
315	1.300000e-01	4.113064e-10	
316	1.400000e-01	5.878303e-10	
317	1.500000e-01	8.394210e-10	
318	1.600000e-01	1.197526e-09	
319	1.700000e-01	1.706327e-09	
320	1.800000e-01	2.427883e-09	
321	1.900000e-01	3.448995e-09	
322	2.000000e-01	4.890513e-09	
323	2.100000e-01	6.919840e-09	
324	2.200000e-01	9.767530e-09	
325	2.300000e-01	1.374902e-08	
326	2.400000e-01	1.929264e-08	
327	2.500000e-01	2.697515e-08	
328	2.600000e-01	3.756591e-08	
329	2.700000e-01	5.208067e-08	
330	2.800000e-01	7.184554e-08	
331	2.900000e-01	9.857148e-08	
332	3.000000e-01	1.344389e-07	
333	3.100000e-01	1.821917e-07	
334	3.200000e-01	2.452412e-07	
335	3.300000e-01	3.277779e-07	
336	3.400000e-01	4.348938e-07	
337	3.500000e-01	5.727141e-07	
338	3.600000e-01	7.485378e-07	
339	3.700000e-01	9.709820e-07	
340	3.800000e-01	1.250117e-06	
341	3.900000e-01	1.597567e-06	
342	4.000000e-01	2.026526e-06	
343	4.100000e-01	2.551636e-06	
344	4.200000e-01	3.188614e-06	

Index   v-sweep         vs#branch       
--------------------------------------------------------------------------------
345	4.300000e-01	3.953476e-06	
346	4.400000e-01	4.861015e-06	
347	4.500000e-01	5.921696e-06	
348	4.600000e-01	7.136545e-06	
349	4.700000e-01	8.498437e-06	
350	4.800000e-01	1.000774e-05	
351	4.900000e-01	1.167295e-05	
352	5.000000e-01	1.349892e-05	
353	5.100000e-01	1.548464e-05	
354	5.200000e-01	1.762458e-05	
355	5.300000e-01	1.990991e-05	
356	5.400000e-01	2.232939e-05	
357	5.500000e-01	2.487011e-05	
358	5.600000e-01	2.751817e-05	
359	5.700000e-01	3.025929e-05	
360	5.800000e-01	3.307926e-05	
361	5.900000e-01	3.596440e-05	
362	6.000000e-01	3.890180e-05	
363	6.100000e-01	4.187952e-05	
364	6.200000e-01	4.488673e-05	
365	6.300000e-01	4.791372e-05	
366	6.400000e-01	5.095195e-05	
367	6.500000e-01	5.399391e-05	
368	6.600000e-01	5.703316e-05	
369	6.700000e-01	6.006416e-05	
370	6.800000e-01	6.308222e-05	
371	6.900000e-01	6.608341e-05	
372	7.000000e-01	6.906444e-05	
373	7.100000e-01	7.202261e-05	
374	7.200000e-01	7.495570e-05	
375	7.300000e-01	7.786194e-05	
376	7.400000e-01	8.073988e-05	
377	7.500000e-01	8.358843e-05	
378	7.600000e-01	8.640672e-05	
379	7.700000e-01	8.919413e-05	
380	7.800000e-01	9.195019e-05	
381	7.900000e-01	9.467463e-05	
382	8.000000e-01	9.736726e-05	
383	8.100000e-01	1.000280e-04	
384	8.200000e-01	1.026569e-04	
385	8.300000e-01	1.052541e-04	
386	8.400000e-01	1.078197e-04	
387	8.500000e-01	1.103539e-04	
388	8.600000e-01	1.128570e-04	
389	8.700000e-01	1.153293e-04	
390	8.800000e-01	1.177710e-04	
391	8.900000e-01	1.201824e-04	
392	9.000000e-01	1.225640e-04	
393	9.100000e-01	1.249160e-04	
394	9.200000e-01	1.272388e-04	
395	9.300000e-01	1.295329e-04	
396	9.400000e-01	1.317985e-04	
397	9.500000e-01	1.340360e-04	
398	9.600000e-01	1.362458e-04	
399	9.700000e-01	1.384283e-04	
400	9.800000e-01	1.405838e-04	
401	9.900000e-01	1.427128e-04	
402	1.000000e+00	1.448155e-04	

Index   v-sweep         vs#branch       
--------------------------------------------------------------------------------
403	1.010000e+00	1.468924e-04	
404	1.020000e+00	1.489438e-04	
405	1.030000e+00	1.509700e-04	
406	1.040000e+00	1.529715e-04	
407	1.050000e+00	1.549486e-04	
408	1.060000e+00	1.569015e-04	
409	1.070000e+00	1.588307e-04	
410	1.080000e+00	1.607365e-04	
411	1.090000e+00	1.626192e-04	
412	1.100000e+00	1.644792e-04	
413	1.110000e+00	1.663167e-04	
414	1.120000e+00	1.681320e-04	
415	1.130000e+00	1.699256e-04	
416	1.140000e+00	1.716977e-04	
417	1.150000e+00	1.734485e-04	
418	1.160000e+00	1.751784e-04	
419	1.170000e+00	1.768877e-04	
420	1.180000e+00	1.785767e-04	
421	1.190000e+00	1.802456e-04	
422	1.200000e+00	1.818947e-04	
423	1.210000e+00	1.835244e-04	
424	1.220000e+00	1.851347e-04	
425	1.230000e+00	1.867262e-04	
426	1.240000e+00	1.882988e-04	
427	1.250000e+00	1.898531e-04	
428	1.260000e+00	1.913891e-04	
429	1.270000e+00	1.929072e-04	
430	1.280000e+00	1.944075e-04	
431	1.290000e+00	1.958904e-04	
432	1.300000e+00	1.973560e-04	
433	1.310000e+00	1.988046e-04	
434	1.320000e+00	2.002365e-04	
435	1.330000e+00	2.016517e-04	
436	1.340000e+00	2.030506e-04	
437	1.350000e+00	2.044334e-04	
438	1.360000e+00	2.058003e-04	
439	1.370000e+00	2.071515e-04	
440	1.380000e+00	2.084872e-04	
441	1.390000e+00	2.098076e-04	
442	1.400000e+00	2.111129e-04	
443	1.410000e+00	2.124033e-04	
444	1.420000e+00	2.136790e-04	
445	1.430000e+00	2.149402e-04	
446	1.440000e+00	2.161871e-04	
447	1.450000e+00	2.174198e-04	
448	1.460000e+00	2.186386e-04	
449	1.470000e+00	2.198436e-04	
450	1.480000e+00	2.210349e-04	
451	1.490000e+00	2.222129e-04	
452	1.500000e+00	2.233776e-04	
453	0.000000e+00	3.802857e-12	
454	1.000000e-02	5.179405e-12	
455	2.000000e-02	7.840940e-12	
456	3.000000e-02	1.125575e-11	
457	4.000000e-02	1.615433e-11	
458	5.000000e-02	2.317943e-11	
459	6.000000e-02	3.325101e-11	
460	7.000000e-02	4.768511e-11	

Index   v-sweep         vs#branch       
--------------------------------------------------------------------------------
461	8.000000e-02	6.836303e-11	
462	9.000000e-02	9.797210e-11	
463	1.000000e-01	1.403476e-10	
464	1.100000e-01	2.009572e-10	
465	1.200000e-01	2.875868e-10	
466	1.300000e-01	4.113064e-10	
467	1.400000e-01	5.878303e-10	
468	1.500000e-01	8.394210e-10	
469	1.600000e-01	1.197526e-09	
470	1.700000e-01	1.706327e-09	
471	1.800000e-01	2.427883e-09	
472	1.900000e-01	3.448995e-09	
473	2.000000e-01	4.890513e-09	
474	2.100000e-01	6.919840e-09	
475	2.200000e-01	9.767530e-09	
476	2.300000e-01	1.374902e-08	
477	2.400000e-01	1.929264e-08	
478	2.500000e-01	2.697515e-08	
479	2.600000e-01	3.756591e-08	
480	2.700000e-01	5.208067e-08	
481	2.800000e-01	7.184554e-08	
482	2.900000e-01	9.857148e-08	
483	3.000000e-01	1.344389e-07	
484	3.100000e-01	1.821917e-07	
485	3.200000e-01	2.452412e-07	
486	3.300000e-01	3.277779e-07	
487	3.400000e-01	4.348938e-07	
488	3.500000e-01	5.727141e-07	
489	3.600000e-01	7.485378e-07	
490	3.700000e-01	9.709820e-07	
491	3.800000e-01	1.250117e-06	
492	3.900000e-01	1.597567e-06	
493	4.000000e-01	2.026526e-06	
494	4.100000e-01	2.551636e-06	
495	4.200000e-01	3.188614e-06	
496	4.300000e-01	3.953476e-06	
497	4.400000e-01	4.861015e-06	
498	4.500000e-01	5.921696e-06	
499	4.600000e-01	7.136545e-06	
500	4.700000e-01	8.498437e-06	
501	4.800000e-01	1.000774e-05	
502	4.900000e-01	1.167295e-05	
503	5.000000e-01	1.349892e-05	
504	5.100000e-01	1.548464e-05	
505	5.200000e-01	1.762458e-05	
506	5.300000e-01	1.990991e-05	
507	5.400000e-01	2.232939e-05	
508	5.500000e-01	2.487011e-05	
509	5.600000e-01	2.751817e-05	
510	5.700000e-01	3.025929e-05	
511	5.800000e-01	3.307926e-05	
512	5.900000e-01	3.596440e-05	
513	6.000000e-01	3.890180e-05	
514	6.100000e-01	4.187952e-05	
515	6.200000e-01	4.488673e-05	
516	6.300000e-01	4.791372e-05	
517	6.400000e-01	5.095195e-05	
518	6.500000e-01	5.399391e-05	

Index   v-sweep         vs#branch       
--------------------------------------------------------------------------------
519	6.600000e-01	5.703316e-05	
520	6.700000e-01	6.006416e-05	
521	6.800000e-01	6.308222e-05	
522	6.900000e-01	6.608341e-05	
523	7.000000e-01	6.906444e-05	
524	7.100000e-01	7.202261e-05	
525	7.200000e-01	7.495570e-05	
526	7.300000e-01	7.786194e-05	
527	7.400000e-01	8.073988e-05	
528	7.500000e-01	8.358843e-05	
529	7.600000e-01	8.640672e-05	
530	7.700000e-01	8.919413e-05	
531	7.800000e-01	9.195019e-05	
532	7.900000e-01	9.467463e-05	
533	8.000000e-01	9.736726e-05	
534	8.100000e-01	1.000280e-04	
535	8.200000e-01	1.026569e-04	
536	8.300000e-01	1.052541e-04	
537	8.400000e-01	1.078197e-04	
538	8.500000e-01	1.103539e-04	
539	8.600000e-01	1.128570e-04	
540	8.700000e-01	1.153293e-04	
541	8.800000e-01	1.177710e-04	
542	8.900000e-01	1.201824e-04	
543	9.000000e-01	1.225640e-04	
544	9.100000e-01	1.249160e-04	
545	9.200000e-01	1.272388e-04	
546	9.300000e-01	1.295329e-04	
547	9.400000e-01	1.317985e-04	
548	9.500000e-01	1.340360e-04	
549	9.600000e-01	1.362458e-04	
550	9.700000e-01	1.384283e-04	
551	9.800000e-01	1.405838e-04	
552	9.900000e-01	1.427128e-04	
553	1.000000e+00	1.448155e-04	
554	1.010000e+00	1.468924e-04	
555	1.020000e+00	1.489438e-04	
556	1.030000e+00	1.509700e-04	
557	1.040000e+00	1.529715e-04	
558	1.050000e+00	1.549486e-04	
559	1.060000e+00	1.569015e-04	
560	1.070000e+00	1.588307e-04	
561	1.080000e+00	1.607365e-04	
562	1.090000e+00	1.626192e-04	
563	1.100000e+00	1.644792e-04	
564	1.110000e+00	1.663167e-04	
565	1.120000e+00	1.681320e-04	
566	1.130000e+00	1.699256e-04	
567	1.140000e+00	1.716977e-04	
568	1.150000e+00	1.734485e-04	
569	1.160000e+00	1.751784e-04	
570	1.170000e+00	1.768877e-04	
571	1.180000e+00	1.785767e-04	
572	1.190000e+00	1.802456e-04	
573	1.200000e+00	1.818947e-04	
574	1.210000e+00	1.835244e-04	
575	1.220000e+00	1.851347e-04	
576	1.230000e+00	1.867262e-04	

Index   v-sweep         vs#branch       
--------------------------------------------------------------------------------
577	1.240000e+00	1.882988e-04	
578	1.250000e+00	1.898531e-04	
579	1.260000e+00	1.913891e-04	
580	1.270000e+00	1.929072e-04	
581	1.280000e+00	1.944075e-04	
582	1.290000e+00	1.958904e-04	
583	1.300000e+00	1.973560e-04	
584	1.310000e+00	1.988046e-04	
585	1.320000e+00	2.002365e-04	
586	1.330000e+00	2.016517e-04	
587	1.340000e+00	2.030506e-04	
588	1.350000e+00	2.044334e-04	
589	1.360000e+00	2.058003e-04	
590	1.370000e+00	2.071515e-04	
591	1.380000e+00	2.084872e-04	
592	1.390000e+00	2.098076e-04	
593	1.400000e+00	2.111129e-04	
594	1.410000e+00	2.124033e-04	
595	1.420000e+00	2.136790e-04	
596	1.430000e+00	2.149402e-04	
597	1.440000e+00	2.161871e-04	
598	1.450000e+00	2.174198e-04	
599	1.460000e+00	2.186386e-04	
600	1.470000e+00	2.198436e-04	
601	1.480000e+00	2.210349e-04	
602	1.490000e+00	2.222129e-04	
603	1.500000e+00	2.233776e-04	
604	0.000000e+00	3.802857e-12	
605	1.000000e-02	5.179405e-12	
606	2.000000e-02	7.840940e-12	
607	3.000000e-02	1.125575e-11	
608	4.000000e-02	1.615433e-11	
609	5.000000e-02	2.317943e-11	
610	6.000000e-02	3.325101e-11	
611	7.000000e-02	4.768511e-11	
612	8.000000e-02	6.836303e-11	
613	9.000000e-02	9.797210e-11	
614	1.000000e-01	1.403476e-10	
615	1.100000e-01	2.009572e-10	
616	1.200000e-01	2.875868e-10	
617	1.300000e-01	4.113064e-10	
618	1.400000e-01	5.878303e-10	
619	1.500000e-01	8.394210e-10	
620	1.600000e-01	1.197526e-09	
621	1.700000e-01	1.706327e-09	
622	1.800000e-01	2.427883e-09	
623	1.900000e-01	3.448995e-09	
624	2.000000e-01	4.890513e-09	
625	2.100000e-01	6.919840e-09	
626	2.200000e-01	9.767530e-09	
627	2.300000e-01	1.374902e-08	
628	2.400000e-01	1.929264e-08	
629	2.500000e-01	2.697515e-08	
630	2.600000e-01	3.756591e-08	
631	2.700000e-01	5.208067e-08	
632	2.800000e-01	7.184554e-08	
633	2.900000e-01	9.857148e-08	
634	3.000000e-01	1.344389e-07	

Index   v-sweep         vs#branch       
--------------------------------------------------------------------------------
635	3.100000e-01	1.821917e-07	
636	3.200000e-01	2.452412e-07	
637	3.300000e-01	3.277779e-07	
638	3.400000e-01	4.348938e-07	
639	3.500000e-01	5.727141e-07	
640	3.600000e-01	7.485378e-07	
641	3.700000e-01	9.709820e-07	
642	3.800000e-01	1.250117e-06	
643	3.900000e-01	1.597567e-06	
644	4.000000e-01	2.026526e-06	
645	4.100000e-01	2.551636e-06	
646	4.200000e-01	3.188614e-06	
647	4.300000e-01	3.953476e-06	
648	4.400000e-01	4.861015e-06	
649	4.500000e-01	5.921696e-06	
650	4.600000e-01	7.136545e-06	
651	4.700000e-01	8.498437e-06	
652	4.800000e-01	1.000774e-05	
653	4.900000e-01	1.167295e-05	
654	5.000000e-01	1.349892e-05	
655	5.100000e-01	1.548464e-05	
656	5.200000e-01	1.762458e-05	
657	5.300000e-01	1.990991e-05	
658	5.400000e-01	2.232939e-05	
659	5.500000e-01	2.487011e-05	
660	5.600000e-01	2.751817e-05	
661	5.700000e-01	3.025929e-05	
662	5.800000e-01	3.307926e-05	
663	5.900000e-01	3.596440e-05	
664	6.000000e-01	3.890180e-05	
665	6.100000e-01	4.187952e-05	
666	6.200000e-01	4.488673e-05	
667	6.300000e-01	4.791372e-05	
668	6.400000e-01	5.095195e-05	
669	6.500000e-01	5.399391e-05	
670	6.600000e-01	5.703316e-05	
671	6.700000e-01	6.006416e-05	
672	6.800000e-01	6.308222e-05	
673	6.900000e-01	6.608341e-05	
674	7.000000e-01	6.906444e-05	
675	7.100000e-01	7.202261e-05	
676	7.200000e-01	7.495570e-05	
677	7.300000e-01	7.786194e-05	
678	7.400000e-01	8.073988e-05	
679	7.500000e-01	8.358843e-05	
680	7.600000e-01	8.640672e-05	
681	7.700000e-01	8.919413e-05	
682	7.800000e-01	9.195019e-05	
683	7.900000e-01	9.467463e-05	
684	8.000000e-01	9.736726e-05	
685	8.100000e-01	1.000280e-04	
686	8.200000e-01	1.026569e-04	
687	8.300000e-01	1.052541e-04	
688	8.400000e-01	1.078197e-04	
689	8.500000e-01	1.103539e-04	
690	8.600000e-01	1.128570e-04	
691	8.700000e-01	1.153293e-04	
692	8.800000e-01	1.177710e-04	

Index   v-sweep         vs#branch       
--------------------------------------------------------------------------------
693	8.900000e-01	1.201824e-04	
694	9.000000e-01	1.225640e-04	
695	9.100000e-01	1.249160e-04	
696	9.200000e-01	1.272388e-04	
697	9.300000e-01	1.295329e-04	
698	9.400000e-01	1.317985e-04	
699	9.500000e-01	1.340360e-04	
700	9.600000e-01	1.362458e-04	
701	9.700000e-01	1.384283e-04	
702	9.800000e-01	1.405838e-04	
703	9.900000e-01	1.427128e-04	
704	1.000000e+00	1.448155e-04	
705	1.010000e+00	1.468924e-04	
706	1.020000e+00	1.489438e-04	
707	1.030000e+00	1.509700e-04	
708	1.040000e+00	1.529715e-04	
709	1.050000e+00	1.549486e-04	
710	1.060000e+00	1.569015e-04	
711	1.070000e+00	1.588307e-04	
712	1.080000e+00	1.607365e-04	
713	1.090000e+00	1.626192e-04	
714	1.100000e+00	1.644792e-04	
715	1.110000e+00	1.663167e-04	
716	1.120000e+00	1.681320e-04	
717	1.130000e+00	1.699256e-04	
718	1.140000e+00	1.716977e-04	
719	1.150000e+00	1.734485e-04	
720	1.160000e+00	1.751784e-04	
721	1.170000e+00	1.768877e-04	
722	1.180000e+00	1.785767e-04	
723	1.190000e+00	1.802456e-04	
724	1.200000e+00	1.818947e-04	
725	1.210000e+00	1.835244e-04	
726	1.220000e+00	1.851347e-04	
727	1.230000e+00	1.867262e-04	
728	1.240000e+00	1.882988e-04	
729	1.250000e+00	1.898531e-04	
730	1.260000e+00	1.913891e-04	
731	1.270000e+00	1.929072e-04	
732	1.280000e+00	1.944075e-04	
733	1.290000e+00	1.958904e-04	
734	1.300000e+00	1.973560e-04	
735	1.310000e+00	1.988046e-04	
736	1.320000e+00	2.002365e-04	
737	1.330000e+00	2.016517e-04	
738	1.340000e+00	2.030506e-04	
739	1.350000e+00	2.044334e-04	
740	1.360000e+00	2.058003e-04	
741	1.370000e+00	2.071515e-04	
742	1.380000e+00	2.084872e-04	
743	1.390000e+00	2.098076e-04	
744	1.400000e+00	2.111129e-04	
745	1.410000e+00	2.124033e-04	
746	1.420000e+00	2.136790e-04	
747	1.430000e+00	2.149402e-04	
748	1.440000e+00	2.161871e-04	
749	1.450000e+00	2.174198e-04	
750	1.460000e+00	2.186386e-04	

Index   v-sweep         vs#branch       
--------------------------------------------------------------------------------
751	1.470000e+00	2.198436e-04	
752	1.480000e+00	2.210349e-04	
753	1.490000e+00	2.222129e-04	
754	1.500000e+00	2.233776e-04	
755	0.000000e+00	3.802857e-12	
756	1.000000e-02	5.179405e-12	
757	2.000000e-02	7.840940e-12	
758	3.000000e-02	1.125575e-11	
759	4.000000e-02	1.615433e-11	
760	5.000000e-02	2.317943e-11	
761	6.000000e-02	3.325101e-11	
762	7.000000e-02	4.768511e-11	
763	8.000000e-02	6.836303e-11	
764	9.000000e-02	9.797210e-11	
765	1.000000e-01	1.403476e-10	
766	1.100000e-01	2.009572e-10	
767	1.200000e-01	2.875868e-10	
768	1.300000e-01	4.113064e-10	
769	1.400000e-01	5.878303e-10	
770	1.500000e-01	8.394210e-10	
771	1.600000e-01	1.197526e-09	
772	1.700000e-01	1.706327e-09	
773	1.800000e-01	2.427883e-09	
774	1.900000e-01	3.448995e-09	
775	2.000000e-01	4.890513e-09	
776	2.100000e-01	6.919840e-09	
777	2.200000e-01	9.767530e-09	
778	2.300000e-01	1.374902e-08	
779	2.400000e-01	1.929264e-08	
780	2.500000e-01	2.697515e-08	
781	2.600000e-01	3.756591e-08	
782	2.700000e-01	5.208067e-08	
783	2.800000e-01	7.184554e-08	
784	2.900000e-01	9.857148e-08	
785	3.000000e-01	1.344389e-07	
786	3.100000e-01	1.821917e-07	
787	3.200000e-01	2.452412e-07	
788	3.300000e-01	3.277779e-07	
789	3.400000e-01	4.348938e-07	
790	3.500000e-01	5.727141e-07	
791	3.600000e-01	7.485378e-07	
792	3.700000e-01	9.709820e-07	
793	3.800000e-01	1.250117e-06	
794	3.900000e-01	1.597567e-06	
795	4.000000e-01	2.026526e-06	
796	4.100000e-01	2.551636e-06	
797	4.200000e-01	3.188614e-06	
798	4.300000e-01	3.953476e-06	
799	4.400000e-01	4.861015e-06	
800	4.500000e-01	5.921696e-06	
801	4.600000e-01	7.136545e-06	
802	4.700000e-01	8.498437e-06	
803	4.800000e-01	1.000774e-05	
804	4.900000e-01	1.167295e-05	
805	5.000000e-01	1.349892e-05	
806	5.100000e-01	1.548464e-05	
807	5.200000e-01	1.762458e-05	
808	5.300000e-01	1.990991e-05	

Index   v-sweep         vs#branch       
--------------------------------------------------------------------------------
809	5.400000e-01	2.232939e-05	
810	5.500000e-01	2.487011e-05	
811	5.600000e-01	2.751817e-05	
812	5.700000e-01	3.025929e-05	
813	5.800000e-01	3.307926e-05	
814	5.900000e-01	3.596440e-05	
815	6.000000e-01	3.890180e-05	
816	6.100000e-01	4.187952e-05	
817	6.200000e-01	4.488673e-05	
818	6.300000e-01	4.791372e-05	
819	6.400000e-01	5.095195e-05	
820	6.500000e-01	5.399391e-05	
821	6.600000e-01	5.703316e-05	
822	6.700000e-01	6.006416e-05	
823	6.800000e-01	6.308222e-05	
824	6.900000e-01	6.608341e-05	
825	7.000000e-01	6.906444e-05	
826	7.100000e-01	7.202261e-05	
827	7.200000e-01	7.495570e-05	
828	7.300000e-01	7.786194e-05	
829	7.400000e-01	8.073988e-05	
830	7.500000e-01	8.358843e-05	
831	7.600000e-01	8.640672e-05	
832	7.700000e-01	8.919413e-05	
833	7.800000e-01	9.195019e-05	
834	7.900000e-01	9.467463e-05	
835	8.000000e-01	9.736726e-05	
836	8.100000e-01	1.000280e-04	
837	8.200000e-01	1.026569e-04	
838	8.300000e-01	1.052541e-04	
839	8.400000e-01	1.078197e-04	
840	8.500000e-01	1.103539e-04	
841	8.600000e-01	1.128570e-04	
842	8.700000e-01	1.153293e-04	
843	8.800000e-01	1.177710e-04	
844	8.900000e-01	1.201824e-04	
845	9.000000e-01	1.225640e-04	
846	9.100000e-01	1.249160e-04	
847	9.200000e-01	1.272388e-04	
848	9.300000e-01	1.295329e-04	
849	9.400000e-01	1.317985e-04	
850	9.500000e-01	1.340360e-04	
851	9.600000e-01	1.362458e-04	
852	9.700000e-01	1.384283e-04	
853	9.800000e-01	1.405838e-04	
854	9.900000e-01	1.427128e-04	
855	1.000000e+00	1.448155e-04	
856	1.010000e+00	1.468924e-04	
857	1.020000e+00	1.489438e-04	
858	1.030000e+00	1.509700e-04	
859	1.040000e+00	1.529715e-04	
860	1.050000e+00	1.549486e-04	
861	1.060000e+00	1.569015e-04	
862	1.070000e+00	1.588307e-04	
863	1.080000e+00	1.607365e-04	
864	1.090000e+00	1.626192e-04	
865	1.100000e+00	1.644792e-04	
866	1.110000e+00	1.663167e-04	

Index   v-sweep         vs#branch       
--------------------------------------------------------------------------------
867	1.120000e+00	1.681320e-04	
868	1.130000e+00	1.699256e-04	
869	1.140000e+00	1.716977e-04	
870	1.150000e+00	1.734485e-04	
871	1.160000e+00	1.751784e-04	
872	1.170000e+00	1.768877e-04	
873	1.180000e+00	1.785767e-04	
874	1.190000e+00	1.802456e-04	
875	1.200000e+00	1.818947e-04	
876	1.210000e+00	1.835244e-04	
877	1.220000e+00	1.851347e-04	
878	1.230000e+00	1.867262e-04	
879	1.240000e+00	1.882988e-04	
880	1.250000e+00	1.898531e-04	
881	1.260000e+00	1.913891e-04	
882	1.270000e+00	1.929072e-04	
883	1.280000e+00	1.944075e-04	
884	1.290000e+00	1.958904e-04	
885	1.300000e+00	1.973560e-04	
886	1.310000e+00	1.988046e-04	
887	1.320000e+00	2.002365e-04	
888	1.330000e+00	2.016517e-04	
889	1.340000e+00	2.030506e-04	
890	1.350000e+00	2.044334e-04	
891	1.360000e+00	2.058003e-04	
892	1.370000e+00	2.071515e-04	
893	1.380000e+00	2.084872e-04	
894	1.390000e+00	2.098076e-04	
895	1.400000e+00	2.111129e-04	
896	1.410000e+00	2.124033e-04	
897	1.420000e+00	2.136790e-04	
898	1.430000e+00	2.149402e-04	
899	1.440000e+00	2.161871e-04	
900	1.450000e+00	2.174198e-04	
901	1.460000e+00	2.186386e-04	
902	1.470000e+00	2.198436e-04	
903	1.480000e+00	2.210349e-04	
904	1.490000e+00	2.222129e-04	
905	1.500000e+00	2.233776e-04	
906	0.000000e+00	3.802857e-12	
907	1.000000e-02	5.179405e-12	
908	2.000000e-02	7.840940e-12	
909	3.000000e-02	1.125575e-11	
910	4.000000e-02	1.615433e-11	
911	5.000000e-02	2.317943e-11	
912	6.000000e-02	3.325101e-11	
913	7.000000e-02	4.768511e-11	
914	8.000000e-02	6.836303e-11	
915	9.000000e-02	9.797210e-11	
916	1.000000e-01	1.403476e-10	
917	1.100000e-01	2.009572e-10	
918	1.200000e-01	2.875868e-10	
919	1.300000e-01	4.113064e-10	
920	1.400000e-01	5.878303e-10	
921	1.500000e-01	8.394210e-10	
922	1.600000e-01	1.197526e-09	
923	1.700000e-01	1.706327e-09	
924	1.800000e-01	2.427883e-09	

Index   v-sweep         vs#branch       
--------------------------------------------------------------------------------
925	1.900000e-01	3.448995e-09	
926	2.000000e-01	4.890513e-09	
927	2.100000e-01	6.919840e-09	
928	2.200000e-01	9.767530e-09	
929	2.300000e-01	1.374902e-08	
930	2.400000e-01	1.929264e-08	
931	2.500000e-01	2.697515e-08	
932	2.600000e-01	3.756591e-08	
933	2.700000e-01	5.208067e-08	
934	2.800000e-01	7.184554e-08	
935	2.900000e-01	9.857148e-08	
936	3.000000e-01	1.344389e-07	
937	3.100000e-01	1.821917e-07	
938	3.200000e-01	2.452412e-07	
939	3.300000e-01	3.277779e-07	
940	3.400000e-01	4.348938e-07	
941	3.500000e-01	5.727141e-07	
942	3.600000e-01	7.485378e-07	
943	3.700000e-01	9.709820e-07	
944	3.800000e-01	1.250117e-06	
945	3.900000e-01	1.597567e-06	
946	4.000000e-01	2.026526e-06	
947	4.100000e-01	2.551636e-06	
948	4.200000e-01	3.188614e-06	
949	4.300000e-01	3.953476e-06	
950	4.400000e-01	4.861015e-06	
951	4.500000e-01	5.921696e-06	
952	4.600000e-01	7.136545e-06	
953	4.700000e-01	8.498437e-06	
954	4.800000e-01	1.000774e-05	
955	4.900000e-01	1.167295e-05	
956	5.000000e-01	1.349892e-05	
957	5.100000e-01	1.548464e-05	
958	5.200000e-01	1.762458e-05	
959	5.300000e-01	1.990991e-05	
960	5.400000e-01	2.232939e-05	
961	5.500000e-01	2.487011e-05	
962	5.600000e-01	2.751817e-05	
963	5.700000e-01	3.025929e-05	
964	5.800000e-01	3.307926e-05	
965	5.900000e-01	3.596440e-05	
966	6.000000e-01	3.890180e-05	
967	6.100000e-01	4.187952e-05	
968	6.200000e-01	4.488673e-05	
969	6.300000e-01	4.791372e-05	
970	6.400000e-01	5.095195e-05	
971	6.500000e-01	5.399391e-05	
972	6.600000e-01	5.703316e-05	
973	6.700000e-01	6.006416e-05	
974	6.800000e-01	6.308222e-05	
975	6.900000e-01	6.608341e-05	
976	7.000000e-01	6.906444e-05	
977	7.100000e-01	7.202261e-05	
978	7.200000e-01	7.495570e-05	
979	7.300000e-01	7.786194e-05	
980	7.400000e-01	8.073988e-05	
981	7.500000e-01	8.358843e-05	
982	7.600000e-01	8.640672e-05	

Index   v-sweep         vs#branch       
--------------------------------------------------------------------------------
983	7.700000e-01	8.919413e-05	
984	7.800000e-01	9.195019e-05	
985	7.900000e-01	9.467463e-05	
986	8.000000e-01	9.736726e-05	
987	8.100000e-01	1.000280e-04	
988	8.200000e-01	1.026569e-04	
989	8.300000e-01	1.052541e-04	
990	8.400000e-01	1.078197e-04	
991	8.500000e-01	1.103539e-04	
992	8.600000e-01	1.128570e-04	
993	8.700000e-01	1.153293e-04	
994	8.800000e-01	1.177710e-04	
995	8.900000e-01	1.201824e-04	
996	9.000000e-01	1.225640e-04	
997	9.100000e-01	1.249160e-04	
998	9.200000e-01	1.272388e-04	
999	9.300000e-01	1.295329e-04	
1000	9.400000e-01	1.317985e-04	
1001	9.500000e-01	1.340360e-04	
1002	9.600000e-01	1.362458e-04	
1003	9.700000e-01	1.384283e-04	
1004	9.800000e-01	1.405838e-04	
1005	9.900000e-01	1.427128e-04	
1006	1.000000e+00	1.448155e-04	
1007	1.010000e+00	1.468924e-04	
1008	1.020000e+00	1.489438e-04	
1009	1.030000e+00	1.509700e-04	
1010	1.040000e+00	1.529715e-04	
1011	1.050000e+00	1.549486e-04	
1012	1.060000e+00	1.569015e-04	
1013	1.070000e+00	1.588307e-04	
1014	1.080000e+00	1.607365e-04	
1015	1.090000e+00	1.626192e-04	
1016	1.100000e+00	1.644792e-04	
1017	1.110000e+00	1.663167e-04	
1018	1.120000e+00	1.681320e-04	
1019	1.130000e+00	1.699256e-04	
1020	1.140000e+00	1.716977e-04	
1021	1.150000e+00	1.734485e-04	
1022	1.160000e+00	1.751784e-04	
1023	1.170000e+00	1.768877e-04	
1024	1.180000e+00	1.785767e-04	
1025	1.190000e+00	1.802456e-04	
1026	1.200000e+00	1.818947e-04	
1027	1.210000e+00	1.835244e-04	
1028	1.220000e+00	1.851347e-04	
1029	1.230000e+00	1.867262e-04	
1030	1.240000e+00	1.882988e-04	
1031	1.250000e+00	1.898531e-04	
1032	1.260000e+00	1.913891e-04	
1033	1.270000e+00	1.929072e-04	
1034	1.280000e+00	1.944075e-04	
1035	1.290000e+00	1.958904e-04	
1036	1.300000e+00	1.973560e-04	
1037	1.310000e+00	1.988046e-04	
1038	1.320000e+00	2.002365e-04	
1039	1.330000e+00	2.016517e-04	
1040	1.340000e+00	2.030506e-04	

Index   v-sweep         vs#branch       
--------------------------------------------------------------------------------
1041	1.350000e+00	2.044334e-04	
1042	1.360000e+00	2.058003e-04	
1043	1.370000e+00	2.071515e-04	
1044	1.380000e+00	2.084872e-04	
1045	1.390000e+00	2.098076e-04	
1046	1.400000e+00	2.111129e-04	
1047	1.410000e+00	2.124033e-04	
1048	1.420000e+00	2.136790e-04	
1049	1.430000e+00	2.149402e-04	
1050	1.440000e+00	2.161871e-04	
1051	1.450000e+00	2.174198e-04	
1052	1.460000e+00	2.186386e-04	
1053	1.470000e+00	2.198436e-04	
1054	1.480000e+00	2.210349e-04	
1055	1.490000e+00	2.222129e-04	
1056	1.500000e+00	2.233776e-04	
1057	0.000000e+00	3.802857e-12	
1058	1.000000e-02	5.179405e-12	
1059	2.000000e-02	7.840940e-12	
1060	3.000000e-02	1.125575e-11	
1061	4.000000e-02	1.615433e-11	
1062	5.000000e-02	2.317943e-11	
1063	6.000000e-02	3.325101e-11	
1064	7.000000e-02	4.768511e-11	
1065	8.000000e-02	6.836303e-11	
1066	9.000000e-02	9.797210e-11	
1067	1.000000e-01	1.403476e-10	
1068	1.100000e-01	2.009572e-10	
1069	1.200000e-01	2.875868e-10	
1070	1.300000e-01	4.113064e-10	
1071	1.400000e-01	5.878303e-10	
1072	1.500000e-01	8.394210e-10	
1073	1.600000e-01	1.197526e-09	
1074	1.700000e-01	1.706327e-09	
1075	1.800000e-01	2.427883e-09	
1076	1.900000e-01	3.448995e-09	
1077	2.000000e-01	4.890513e-09	
1078	2.100000e-01	6.919840e-09	
1079	2.200000e-01	9.767530e-09	
1080	2.300000e-01	1.374902e-08	
1081	2.400000e-01	1.929264e-08	
1082	2.500000e-01	2.697515e-08	
1083	2.600000e-01	3.756591e-08	
1084	2.700000e-01	5.208067e-08	
1085	2.800000e-01	7.184554e-08	
1086	2.900000e-01	9.857148e-08	
1087	3.000000e-01	1.344389e-07	
1088	3.100000e-01	1.821917e-07	
1089	3.200000e-01	2.452412e-07	
1090	3.300000e-01	3.277779e-07	
1091	3.400000e-01	4.348938e-07	
1092	3.500000e-01	5.727141e-07	
1093	3.600000e-01	7.485378e-07	
1094	3.700000e-01	9.709820e-07	
1095	3.800000e-01	1.250117e-06	
1096	3.900000e-01	1.597567e-06	
1097	4.000000e-01	2.026526e-06	
1098	4.100000e-01	2.551636e-06	

Index   v-sweep         vs#branch       
--------------------------------------------------------------------------------
1099	4.200000e-01	3.188614e-06	
1100	4.300000e-01	3.953476e-06	
1101	4.400000e-01	4.861015e-06	
1102	4.500000e-01	5.921696e-06	
1103	4.600000e-01	7.136545e-06	
1104	4.700000e-01	8.498437e-06	
1105	4.800000e-01	1.000774e-05	
1106	4.900000e-01	1.167295e-05	
1107	5.000000e-01	1.349892e-05	
1108	5.100000e-01	1.548464e-05	
1109	5.200000e-01	1.762458e-05	
1110	5.300000e-01	1.990991e-05	
1111	5.400000e-01	2.232939e-05	
1112	5.500000e-01	2.487011e-05	
1113	5.600000e-01	2.751817e-05	
1114	5.700000e-01	3.025929e-05	
1115	5.800000e-01	3.307926e-05	
1116	5.900000e-01	3.596440e-05	
1117	6.000000e-01	3.890180e-05	
1118	6.100000e-01	4.187952e-05	
1119	6.200000e-01	4.488673e-05	
1120	6.300000e-01	4.791372e-05	
1121	6.400000e-01	5.095195e-05	
1122	6.500000e-01	5.399391e-05	
1123	6.600000e-01	5.703316e-05	
1124	6.700000e-01	6.006416e-05	
1125	6.800000e-01	6.308222e-05	
1126	6.900000e-01	6.608341e-05	
1127	7.000000e-01	6.906444e-05	
1128	7.100000e-01	7.202261e-05	
1129	7.200000e-01	7.495570e-05	
1130	7.300000e-01	7.786194e-05	
1131	7.400000e-01	8.073988e-05	
1132	7.500000e-01	8.358843e-05	
1133	7.600000e-01	8.640672e-05	
1134	7.700000e-01	8.919413e-05	
1135	7.800000e-01	9.195019e-05	
1136	7.900000e-01	9.467463e-05	
1137	8.000000e-01	9.736726e-05	
1138	8.100000e-01	1.000280e-04	
1139	8.200000e-01	1.026569e-04	
1140	8.300000e-01	1.052541e-04	
1141	8.400000e-01	1.078197e-04	
1142	8.500000e-01	1.103539e-04	
1143	8.600000e-01	1.128570e-04	
1144	8.700000e-01	1.153293e-04	
1145	8.800000e-01	1.177710e-04	
1146	8.900000e-01	1.201824e-04	
1147	9.000000e-01	1.225640e-04	
1148	9.100000e-01	1.249160e-04	
1149	9.200000e-01	1.272388e-04	
1150	9.300000e-01	1.295329e-04	
1151	9.400000e-01	1.317985e-04	
1152	9.500000e-01	1.340360e-04	
1153	9.600000e-01	1.362458e-04	
1154	9.700000e-01	1.384283e-04	
1155	9.800000e-01	1.405838e-04	
1156	9.900000e-01	1.427128e-04	

Index   v-sweep         vs#branch       
--------------------------------------------------------------------------------
1157	1.000000e+00	1.448155e-04	
1158	1.010000e+00	1.468924e-04	
1159	1.020000e+00	1.489438e-04	
1160	1.030000e+00	1.509700e-04	
1161	1.040000e+00	1.529715e-04	
1162	1.050000e+00	1.549486e-04	
1163	1.060000e+00	1.569015e-04	
1164	1.070000e+00	1.588307e-04	
1165	1.080000e+00	1.607365e-04	
1166	1.090000e+00	1.626192e-04	
1167	1.100000e+00	1.644792e-04	
1168	1.110000e+00	1.663167e-04	
1169	1.120000e+00	1.681320e-04	
1170	1.130000e+00	1.699256e-04	
1171	1.140000e+00	1.716977e-04	
1172	1.150000e+00	1.734485e-04	
1173	1.160000e+00	1.751784e-04	
1174	1.170000e+00	1.768877e-04	
1175	1.180000e+00	1.785767e-04	
1176	1.190000e+00	1.802456e-04	
1177	1.200000e+00	1.818947e-04	
1178	1.210000e+00	1.835244e-04	
1179	1.220000e+00	1.851347e-04	
1180	1.230000e+00	1.867262e-04	
1181	1.240000e+00	1.882988e-04	
1182	1.250000e+00	1.898531e-04	
1183	1.260000e+00	1.913891e-04	
1184	1.270000e+00	1.929072e-04	
1185	1.280000e+00	1.944075e-04	
1186	1.290000e+00	1.958904e-04	
1187	1.300000e+00	1.973560e-04	
1188	1.310000e+00	1.988046e-04	
1189	1.320000e+00	2.002365e-04	
1190	1.330000e+00	2.016517e-04	
1191	1.340000e+00	2.030506e-04	
1192	1.350000e+00	2.044334e-04	
1193	1.360000e+00	2.058003e-04	
1194	1.370000e+00	2.071515e-04	
1195	1.380000e+00	2.084872e-04	
1196	1.390000e+00	2.098076e-04	
1197	1.400000e+00	2.111129e-04	
1198	1.410000e+00	2.124033e-04	
1199	1.420000e+00	2.136790e-04	
1200	1.430000e+00	2.149402e-04	
1201	1.440000e+00	2.161871e-04	
1202	1.450000e+00	2.174198e-04	
1203	1.460000e+00	2.186386e-04	
1204	1.470000e+00	2.198436e-04	
1205	1.480000e+00	2.210349e-04	
1206	1.490000e+00	2.222129e-04	
1207	1.500000e+00	2.233776e-04	
1208	0.000000e+00	3.802857e-12	
1209	1.000000e-02	5.179405e-12	
1210	2.000000e-02	7.840940e-12	
1211	3.000000e-02	1.125575e-11	
1212	4.000000e-02	1.615433e-11	
1213	5.000000e-02	2.317943e-11	
1214	6.000000e-02	3.325101e-11	

Index   v-sweep         vs#branch       
--------------------------------------------------------------------------------
1215	7.000000e-02	4.768511e-11	
1216	8.000000e-02	6.836303e-11	
1217	9.000000e-02	9.797210e-11	
1218	1.000000e-01	1.403476e-10	
1219	1.100000e-01	2.009572e-10	
1220	1.200000e-01	2.875868e-10	
1221	1.300000e-01	4.113064e-10	
1222	1.400000e-01	5.878303e-10	
1223	1.500000e-01	8.394210e-10	
1224	1.600000e-01	1.197526e-09	
1225	1.700000e-01	1.706327e-09	
1226	1.800000e-01	2.427883e-09	
1227	1.900000e-01	3.448995e-09	
1228	2.000000e-01	4.890513e-09	
1229	2.100000e-01	6.919840e-09	
1230	2.200000e-01	9.767530e-09	
1231	2.300000e-01	1.374902e-08	
1232	2.400000e-01	1.929264e-08	
1233	2.500000e-01	2.697515e-08	
1234	2.600000e-01	3.756591e-08	
1235	2.700000e-01	5.208067e-08	
1236	2.800000e-01	7.184554e-08	
1237	2.900000e-01	9.857148e-08	
1238	3.000000e-01	1.344389e-07	
1239	3.100000e-01	1.821917e-07	
1240	3.200000e-01	2.452412e-07	
1241	3.300000e-01	3.277779e-07	
1242	3.400000e-01	4.348938e-07	
1243	3.500000e-01	5.727141e-07	
1244	3.600000e-01	7.485378e-07	
1245	3.700000e-01	9.709820e-07	
1246	3.800000e-01	1.250117e-06	
1247	3.900000e-01	1.597567e-06	
1248	4.000000e-01	2.026526e-06	
1249	4.100000e-01	2.551636e-06	
1250	4.200000e-01	3.188614e-06	
1251	4.300000e-01	3.953476e-06	
1252	4.400000e-01	4.861015e-06	
1253	4.500000e-01	5.921696e-06	
1254	4.600000e-01	7.136545e-06	
1255	4.700000e-01	8.498437e-06	
1256	4.800000e-01	1.000774e-05	
1257	4.900000e-01	1.167295e-05	
1258	5.000000e-01	1.349892e-05	
1259	5.100000e-01	1.548464e-05	
1260	5.200000e-01	1.762458e-05	
1261	5.300000e-01	1.990991e-05	
1262	5.400000e-01	2.232939e-05	
1263	5.500000e-01	2.487011e-05	
1264	5.600000e-01	2.751817e-05	
1265	5.700000e-01	3.025929e-05	
1266	5.800000e-01	3.307926e-05	
1267	5.900000e-01	3.596440e-05	
1268	6.000000e-01	3.890180e-05	
1269	6.100000e-01	4.187952e-05	
1270	6.200000e-01	4.488673e-05	
1271	6.300000e-01	4.791372e-05	
1272	6.400000e-01	5.095195e-05	

Index   v-sweep         vs#branch       
--------------------------------------------------------------------------------
1273	6.500000e-01	5.399391e-05	
1274	6.600000e-01	5.703316e-05	
1275	6.700000e-01	6.006416e-05	
1276	6.800000e-01	6.308222e-05	
1277	6.900000e-01	6.608341e-05	
1278	7.000000e-01	6.906444e-05	
1279	7.100000e-01	7.202261e-05	
1280	7.200000e-01	7.495570e-05	
1281	7.300000e-01	7.786194e-05	
1282	7.400000e-01	8.073988e-05	
1283	7.500000e-01	8.358843e-05	
1284	7.600000e-01	8.640672e-05	
1285	7.700000e-01	8.919413e-05	
1286	7.800000e-01	9.195019e-05	
1287	7.900000e-01	9.467463e-05	
1288	8.000000e-01	9.736726e-05	
1289	8.100000e-01	1.000280e-04	
1290	8.200000e-01	1.026569e-04	
1291	8.300000e-01	1.052541e-04	
1292	8.400000e-01	1.078197e-04	
1293	8.500000e-01	1.103539e-04	
1294	8.600000e-01	1.128570e-04	
1295	8.700000e-01	1.153293e-04	
1296	8.800000e-01	1.177710e-04	
1297	8.900000e-01	1.201824e-04	
1298	9.000000e-01	1.225640e-04	
1299	9.100000e-01	1.249160e-04	
1300	9.200000e-01	1.272388e-04	
1301	9.300000e-01	1.295329e-04	
1302	9.400000e-01	1.317985e-04	
1303	9.500000e-01	1.340360e-04	
1304	9.600000e-01	1.362458e-04	
1305	9.700000e-01	1.384283e-04	
1306	9.800000e-01	1.405838e-04	
1307	9.900000e-01	1.427128e-04	
1308	1.000000e+00	1.448155e-04	
1309	1.010000e+00	1.468924e-04	
1310	1.020000e+00	1.489438e-04	
1311	1.030000e+00	1.509700e-04	
1312	1.040000e+00	1.529715e-04	
1313	1.050000e+00	1.549486e-04	
1314	1.060000e+00	1.569015e-04	
1315	1.070000e+00	1.588307e-04	
1316	1.080000e+00	1.607365e-04	
1317	1.090000e+00	1.626192e-04	
1318	1.100000e+00	1.644792e-04	
1319	1.110000e+00	1.663167e-04	
1320	1.120000e+00	1.681320e-04	
1321	1.130000e+00	1.699256e-04	
1322	1.140000e+00	1.716977e-04	
1323	1.150000e+00	1.734485e-04	
1324	1.160000e+00	1.751784e-04	
1325	1.170000e+00	1.768877e-04	
1326	1.180000e+00	1.785767e-04	
1327	1.190000e+00	1.802456e-04	
1328	1.200000e+00	1.818947e-04	
1329	1.210000e+00	1.835244e-04	
1330	1.220000e+00	1.851347e-04	

Index   v-sweep         vs#branch       
--------------------------------------------------------------------------------
1331	1.230000e+00	1.867262e-04	
1332	1.240000e+00	1.882988e-04	
1333	1.250000e+00	1.898531e-04	
1334	1.260000e+00	1.913891e-04	
1335	1.270000e+00	1.929072e-04	
1336	1.280000e+00	1.944075e-04	
1337	1.290000e+00	1.958904e-04	
1338	1.300000e+00	1.973560e-04	
1339	1.310000e+00	1.988046e-04	
1340	1.320000e+00	2.002365e-04	
1341	1.330000e+00	2.016517e-04	
1342	1.340000e+00	2.030506e-04	
1343	1.350000e+00	2.044334e-04	
1344	1.360000e+00	2.058003e-04	
1345	1.370000e+00	2.071515e-04	
1346	1.380000e+00	2.084872e-04	
1347	1.390000e+00	2.098076e-04	
1348	1.400000e+00	2.111129e-04	
1349	1.410000e+00	2.124033e-04	
1350	1.420000e+00	2.136790e-04	
1351	1.430000e+00	2.149402e-04	
1352	1.440000e+00	2.161871e-04	
1353	1.450000e+00	2.174198e-04	
1354	1.460000e+00	2.186386e-04	
1355	1.470000e+00	2.198436e-04	
1356	1.480000e+00	2.210349e-04	
1357	1.490000e+00	2.222129e-04	
1358	1.500000e+00	2.233776e-04	




