 Reference value :  5.50000e-01
No. of Data Rows : 1359

Circuit: *model = BSIMSOI (FD)

Doing analysis at TEMP = 300.150000 and TNOM = 300.150000
Warning: Pd = 0 is less than W.
Warning: Ps = 0 is less than W.
                             *model = BSIMSOI (FD)
--------------------------------------------------------------------------------
Index   v-sweep         vs#branch       
--------------------------------------------------------------------------------
0	0.000000e+00	2.494471e-14	
1	1.000000e-02	1.210630e-14	
2	2.000000e-02	1.680554e-14	
3	3.000000e-02	6.865338e-14	
4	4.000000e-02	9.780122e-14	
5	5.000000e-02	1.392800e-13	
6	6.000000e-02	1.982874e-13	
7	7.000000e-02	2.822037e-13	
8	8.000000e-02	4.015052e-13	
9	9.000000e-02	5.710570e-13	
10	1.000000e-01	8.119448e-13	
11	1.100000e-01	1.154067e-12	
12	1.200000e-01	1.639799e-12	
13	1.300000e-01	2.329183e-12	
14	1.400000e-01	3.307249e-12	
15	1.500000e-01	4.694367e-12	
16	1.600000e-01	6.660852e-12	
17	1.700000e-01	9.447000e-12	
18	1.800000e-01	1.339138e-11	
19	1.900000e-01	1.897272e-11	
20	2.000000e-01	2.821752e-11	
21	2.100000e-01	3.992749e-11	
22	2.200000e-01	5.646278e-11	
23	2.300000e-01	7.979470e-11	
24	2.400000e-01	1.126909e-10	
25	2.500000e-01	1.590320e-10	
26	2.600000e-01	2.242515e-10	
27	2.700000e-01	3.159445e-10	
28	2.800000e-01	4.447080e-10	
29	2.900000e-01	6.252959e-10	
30	3.000000e-01	8.782006e-10	
31	3.100000e-01	1.231806e-09	
32	3.200000e-01	1.725301e-09	
33	3.300000e-01	2.412600e-09	
34	3.400000e-01	3.367565e-09	
35	3.500000e-01	4.690912e-09	
36	3.600000e-01	6.519232e-09	
37	3.700000e-01	9.036644e-09	
38	3.800000e-01	1.248962e-08	
39	3.900000e-01	1.720557e-08	
40	4.000000e-01	2.361569e-08	
41	4.100000e-01	3.228250e-08	
42	4.200000e-01	4.393235e-08	
43	4.300000e-01	5.949286e-08	
44	4.400000e-01	8.013501e-08	
45	4.500000e-01	1.073195e-07	
46	4.600000e-01	1.428466e-07	
47	4.700000e-01	1.889097e-07	
48	4.800000e-01	2.481514e-07	
49	4.900000e-01	3.237247e-07	
50	5.000000e-01	4.193583e-07	
51	5.100000e-01	5.394302e-07	
52	5.200000e-01	6.890472e-07	
53	5.300000e-01	8.741323e-07	
54	5.400000e-01	1.101512e-06	

Index   v-sweep         vs#branch       
--------------------------------------------------------------------------------
55	5.500000e-01	1.378997e-06	
56	5.600000e-01	1.715435e-06	
57	5.700000e-01	2.120714e-06	
58	5.800000e-01	2.605704e-06	
59	5.900000e-01	3.182083e-06	
60	6.000000e-01	3.862081e-06	
61	6.100000e-01	4.658138e-06	
62	6.200000e-01	5.582629e-06	
63	6.300000e-01	6.647804e-06	
64	6.400000e-01	7.865113e-06	
65	6.500000e-01	9.242348e-06	
66	6.600000e-01	1.078247e-05	
67	6.700000e-01	1.248496e-05	
68	6.800000e-01	1.434625e-05	
69	6.900000e-01	1.635981e-05	
70	7.000000e-01	1.851645e-05	
71	7.100000e-01	2.080484e-05	
72	7.200000e-01	2.321211e-05	
73	7.300000e-01	2.572448e-05	
74	7.400000e-01	2.832782e-05	
75	7.500000e-01	3.100816e-05	
76	7.600000e-01	3.372246e-05	
77	7.700000e-01	3.652348e-05	
78	7.800000e-01	3.936336e-05	
79	7.900000e-01	4.223160e-05	
80	8.000000e-01	4.511888e-05	
81	8.100000e-01	4.801702e-05	
82	8.200000e-01	5.091896e-05	
83	8.300000e-01	5.381861e-05	
84	8.400000e-01	5.671083e-05	
85	8.500000e-01	5.959124e-05	
86	8.600000e-01	6.245623e-05	
87	8.700000e-01	6.530278e-05	
88	8.800000e-01	6.812841e-05	
89	8.900000e-01	7.093110e-05	
90	9.000000e-01	7.370922e-05	
91	9.100000e-01	7.646149e-05	
92	9.200000e-01	7.918688e-05	
93	9.300000e-01	8.188463e-05	
94	9.400000e-01	8.455416e-05	
95	9.500000e-01	8.719504e-05	
96	9.600000e-01	8.980701e-05	
97	9.700000e-01	9.238990e-05	
98	9.800000e-01	9.494364e-05	
99	9.900000e-01	9.746825e-05	
100	1.000000e+00	9.996379e-05	
101	1.010000e+00	1.024304e-04	
102	1.020000e+00	1.048683e-04	
103	1.030000e+00	1.072776e-04	
104	1.040000e+00	1.096586e-04	
105	1.050000e+00	1.120115e-04	
106	1.060000e+00	1.143366e-04	
107	1.070000e+00	1.166343e-04	
108	1.080000e+00	1.189047e-04	
109	1.090000e+00	1.211483e-04	
110	1.100000e+00	1.233653e-04	
111	1.110000e+00	1.255561e-04	
112	1.120000e+00	1.277209e-04	

Index   v-sweep         vs#branch       
--------------------------------------------------------------------------------
113	1.130000e+00	1.298602e-04	
114	1.140000e+00	1.319741e-04	
115	1.150000e+00	1.340632e-04	
116	1.160000e+00	1.361276e-04	
117	1.170000e+00	1.381677e-04	
118	1.180000e+00	1.401838e-04	
119	1.190000e+00	1.421762e-04	
120	1.200000e+00	1.441453e-04	
121	1.210000e+00	1.460914e-04	
122	1.220000e+00	1.480147e-04	
123	1.230000e+00	1.499156e-04	
124	1.240000e+00	1.517944e-04	
125	1.250000e+00	1.536513e-04	
126	1.260000e+00	1.554867e-04	
127	1.270000e+00	1.573008e-04	
128	1.280000e+00	1.590939e-04	
129	1.290000e+00	1.608664e-04	
130	1.300000e+00	1.626185e-04	
131	1.310000e+00	1.643504e-04	
132	1.320000e+00	1.660624e-04	
133	1.330000e+00	1.677548e-04	
134	1.340000e+00	1.694279e-04	
135	1.350000e+00	1.710819e-04	
136	1.360000e+00	1.727170e-04	
137	1.370000e+00	1.743335e-04	
138	1.380000e+00	1.759317e-04	
139	1.390000e+00	1.775118e-04	
140	1.400000e+00	1.790740e-04	
141	1.410000e+00	1.806186e-04	
142	1.420000e+00	1.821458e-04	
143	1.430000e+00	1.836558e-04	
144	1.440000e+00	1.851488e-04	
145	1.450000e+00	1.866251e-04	
146	1.460000e+00	1.880849e-04	
147	1.470000e+00	1.895284e-04	
148	1.480000e+00	1.909557e-04	
149	1.490000e+00	1.923672e-04	
150	1.500000e+00	1.937630e-04	
151	0.000000e+00	8.728369e-14	
152	1.000000e-02	1.185890e-13	
153	2.000000e-02	1.696780e-13	
154	3.000000e-02	2.426935e-13	
155	4.000000e-02	3.470095e-13	
156	5.000000e-02	4.959916e-13	
157	6.000000e-02	7.086893e-13	
158	7.000000e-02	1.012243e-12	
159	8.000000e-02	1.445304e-12	
160	9.000000e-02	2.062893e-12	
161	1.000000e-01	2.943304e-12	
162	1.100000e-01	4.197887e-12	
163	1.200000e-01	5.984937e-12	
164	1.300000e-01	8.529367e-12	
165	1.400000e-01	1.215056e-11	
166	1.500000e-01	1.730180e-11	
167	1.600000e-01	2.590033e-11	
168	1.700000e-01	3.683771e-11	
169	1.800000e-01	5.236104e-11	
170	1.900000e-01	7.437674e-11	

Index   v-sweep         vs#branch       
--------------------------------------------------------------------------------
171	2.000000e-01	1.055750e-10	
172	2.100000e-01	1.497472e-10	
173	2.200000e-01	2.122290e-10	
174	2.300000e-01	3.005170e-10	
175	2.400000e-01	4.251248e-10	
176	2.500000e-01	6.007661e-10	
177	2.600000e-01	8.479832e-10	
178	2.700000e-01	1.195378e-09	
179	2.800000e-01	1.682650e-09	
180	2.900000e-01	2.364702e-09	
181	3.000000e-01	3.317155e-09	
182	3.100000e-01	4.643674e-09	
183	3.200000e-01	6.485609e-09	
184	3.300000e-01	9.034525e-09	
185	3.400000e-01	1.254826e-08	
186	3.500000e-01	1.737115e-08	
187	3.600000e-01	2.395917e-08	
188	3.700000e-01	3.291032e-08	
189	3.800000e-01	4.500082e-08	
190	3.900000e-01	6.122707e-08	
191	4.000000e-01	8.285314e-08	
192	4.100000e-01	1.114633e-07	
193	4.200000e-01	1.490193e-07	
194	4.300000e-01	1.979209e-07	
195	4.400000e-01	2.610715e-07	
196	4.500000e-01	3.419474e-07	
197	4.600000e-01	4.446734e-07	
198	4.700000e-01	5.741062e-07	
199	4.800000e-01	7.359242e-07	
200	4.900000e-01	9.367238e-07	
201	5.000000e-01	1.184113e-06	
202	5.100000e-01	1.486791e-06	
203	5.200000e-01	1.854588e-06	
204	5.300000e-01	2.298443e-06	
205	5.400000e-01	2.830278e-06	
206	5.500000e-01	3.462743e-06	
207	5.600000e-01	4.208798e-06	
208	5.700000e-01	5.081108e-06	
209	5.800000e-01	6.091255e-06	
210	5.900000e-01	7.248896e-06	
211	6.000000e-01	8.561544e-06	
212	6.100000e-01	1.003471e-05	
213	6.200000e-01	1.167098e-05	
214	6.300000e-01	1.346937e-05	
215	6.400000e-01	1.542542e-05	
216	6.500000e-01	1.753156e-05	
217	6.600000e-01	1.977766e-05	
218	6.700000e-01	2.215162e-05	
219	6.800000e-01	2.464004e-05	
220	6.900000e-01	2.722881e-05	
221	7.000000e-01	2.990369e-05	
222	7.100000e-01	3.265074e-05	
223	7.200000e-01	3.542938e-05	
224	7.300000e-01	3.828791e-05	
225	7.400000e-01	4.118117e-05	
226	7.500000e-01	4.409900e-05	
227	7.600000e-01	4.703241e-05	
228	7.700000e-01	4.997357e-05	

Index   v-sweep         vs#branch       
--------------------------------------------------------------------------------
229	7.800000e-01	5.291570e-05	
230	7.900000e-01	5.585302e-05	
231	8.000000e-01	5.878062e-05	
232	8.100000e-01	6.169437e-05	
233	8.200000e-01	6.459084e-05	
234	8.300000e-01	6.746719e-05	
235	8.400000e-01	7.032109e-05	
236	8.500000e-01	7.315066e-05	
237	8.600000e-01	7.595438e-05	
238	8.700000e-01	7.873107e-05	
239	8.800000e-01	8.147979e-05	
240	8.900000e-01	8.419984e-05	
241	9.000000e-01	8.689072e-05	
242	9.100000e-01	8.955206e-05	
243	9.200000e-01	9.218364e-05	
244	9.300000e-01	9.478534e-05	
245	9.400000e-01	9.735714e-05	
246	9.500000e-01	9.989908e-05	
247	9.600000e-01	1.024113e-04	
248	9.700000e-01	1.048939e-04	
249	9.800000e-01	1.073471e-04	
250	9.900000e-01	1.097711e-04	
251	1.000000e+00	1.121663e-04	
252	1.010000e+00	1.145328e-04	
253	1.020000e+00	1.168710e-04	
254	1.030000e+00	1.191811e-04	
255	1.040000e+00	1.214636e-04	
256	1.050000e+00	1.237187e-04	
257	1.060000e+00	1.259467e-04	
258	1.070000e+00	1.281481e-04	
259	1.080000e+00	1.303230e-04	
260	1.090000e+00	1.324720e-04	
261	1.100000e+00	1.345952e-04	
262	1.110000e+00	1.366931e-04	
263	1.120000e+00	1.387659e-04	
264	1.130000e+00	1.408141e-04	
265	1.140000e+00	1.428379e-04	
266	1.150000e+00	1.448377e-04	
267	1.160000e+00	1.468137e-04	
268	1.170000e+00	1.487664e-04	
269	1.180000e+00	1.506960e-04	
270	1.190000e+00	1.526028e-04	
271	1.200000e+00	1.544872e-04	
272	1.210000e+00	1.563494e-04	
273	1.220000e+00	1.581898e-04	
274	1.230000e+00	1.600087e-04	
275	1.240000e+00	1.618063e-04	
276	1.250000e+00	1.635829e-04	
277	1.260000e+00	1.653388e-04	
278	1.270000e+00	1.670743e-04	
279	1.280000e+00	1.687897e-04	
280	1.290000e+00	1.704853e-04	
281	1.300000e+00	1.721612e-04	
282	1.310000e+00	1.738178e-04	
283	1.320000e+00	1.754553e-04	
284	1.330000e+00	1.770740e-04	
285	1.340000e+00	1.786742e-04	
286	1.350000e+00	1.802560e-04	

Index   v-sweep         vs#branch       
--------------------------------------------------------------------------------
287	1.360000e+00	1.818197e-04	
288	1.370000e+00	1.833656e-04	
289	1.380000e+00	1.848939e-04	
290	1.390000e+00	1.864048e-04	
291	1.400000e+00	1.878986e-04	
292	1.410000e+00	1.893754e-04	
293	1.420000e+00	1.908356e-04	
294	1.430000e+00	1.922793e-04	
295	1.440000e+00	1.937067e-04	
296	1.450000e+00	1.951180e-04	
297	1.460000e+00	1.965135e-04	
298	1.470000e+00	1.978934e-04	
299	1.480000e+00	1.992578e-04	
300	1.490000e+00	2.006069e-04	
301	1.500000e+00	2.019410e-04	
302	0.000000e+00	2.887436e-13	
303	1.000000e-02	3.931018e-13	
304	2.000000e-02	5.641699e-13	
305	3.000000e-02	8.095897e-13	
306	4.000000e-02	1.161630e-12	
307	5.000000e-02	1.666535e-12	
308	6.000000e-02	2.390439e-12	
309	7.000000e-02	3.427388e-12	
310	8.000000e-02	4.912089e-12	
311	9.000000e-02	7.036995e-12	
312	1.000000e-01	1.007676e-11	
313	1.100000e-01	1.442317e-11	
314	1.200000e-01	2.173201e-11	
315	1.300000e-01	3.107171e-11	
316	1.400000e-01	4.440208e-11	
317	1.500000e-01	6.341614e-11	
318	1.600000e-01	9.051711e-11	
319	1.700000e-01	1.291030e-10	
320	1.800000e-01	1.839867e-10	
321	1.900000e-01	2.619706e-10	
322	2.000000e-01	3.726502e-10	
323	2.100000e-01	5.295336e-10	
324	2.200000e-01	7.515928e-10	
325	2.300000e-01	1.065404e-09	
326	2.400000e-01	1.508086e-09	
327	2.500000e-01	2.131297e-09	
328	2.600000e-01	3.006656e-09	
329	2.700000e-01	4.233000e-09	
330	2.800000e-01	5.946025e-09	
331	2.900000e-01	8.330945e-09	
332	3.000000e-01	1.163887e-08	
333	3.100000e-01	1.620772e-08	
334	3.200000e-01	2.248837e-08	
335	3.300000e-01	3.107690e-08	
336	3.400000e-01	4.275325e-08	
337	3.500000e-01	5.852676e-08	
338	3.600000e-01	7.968840e-08	
339	3.700000e-01	1.078692e-07	
340	3.800000e-01	1.451046e-07	
341	3.900000e-01	1.939032e-07	
342	4.000000e-01	2.573212e-07	
343	4.100000e-01	3.390415e-07	
344	4.200000e-01	4.434590e-07	

Index   v-sweep         vs#branch       
--------------------------------------------------------------------------------
345	4.300000e-01	5.757735e-07	
346	4.400000e-01	7.420905e-07	
347	4.500000e-01	9.495256e-07	
348	4.600000e-01	1.206306e-06	
349	4.700000e-01	1.521853e-06	
350	4.800000e-01	1.906814e-06	
351	4.900000e-01	2.373019e-06	
352	5.000000e-01	2.933310e-06	
353	5.100000e-01	3.601183e-06	
354	5.200000e-01	4.390191e-06	
355	5.300000e-01	5.312956e-06	
356	5.400000e-01	6.379594e-06	
357	5.500000e-01	7.596206e-06	
358	5.600000e-01	8.967049e-06	
359	5.700000e-01	1.049743e-05	
360	5.800000e-01	1.219063e-05	
361	5.900000e-01	1.404581e-05	
362	6.000000e-01	1.605825e-05	
363	6.100000e-01	1.822001e-05	
364	6.200000e-01	2.052060e-05	
365	6.300000e-01	2.294763e-05	
366	6.400000e-01	2.548749e-05	
367	6.500000e-01	2.812594e-05	
368	6.600000e-01	3.084868e-05	
369	6.700000e-01	3.360889e-05	
370	6.800000e-01	3.646564e-05	
371	6.900000e-01	3.936677e-05	
372	7.000000e-01	4.230101e-05	
373	7.100000e-01	4.525831e-05	
374	7.200000e-01	4.822978e-05	
375	7.300000e-01	5.120765e-05	
376	7.400000e-01	5.418523e-05	
377	7.500000e-01	5.715681e-05	
378	7.600000e-01	6.011753e-05	
379	7.700000e-01	6.306333e-05	
380	7.800000e-01	6.599083e-05	
381	7.900000e-01	6.889722e-05	
382	8.000000e-01	7.178022e-05	
383	8.100000e-01	7.463797e-05	
384	8.200000e-01	7.746900e-05	
385	8.300000e-01	8.027214e-05	
386	8.400000e-01	8.304649e-05	
387	8.500000e-01	8.579138e-05	
388	8.600000e-01	8.850631e-05	
389	8.700000e-01	9.119096e-05	
390	8.800000e-01	9.384511e-05	
391	8.900000e-01	9.646867e-05	
392	9.000000e-01	9.906164e-05	
393	9.100000e-01	1.016241e-04	
394	9.200000e-01	1.041561e-04	
395	9.300000e-01	1.066579e-04	
396	9.400000e-01	1.091297e-04	
397	9.500000e-01	1.115717e-04	
398	9.600000e-01	1.139842e-04	
399	9.700000e-01	1.163676e-04	
400	9.800000e-01	1.187220e-04	
401	9.900000e-01	1.210479e-04	
402	1.000000e+00	1.233455e-04	

Index   v-sweep         vs#branch       
--------------------------------------------------------------------------------
403	1.010000e+00	1.256153e-04	
404	1.020000e+00	1.278575e-04	
405	1.030000e+00	1.300725e-04	
406	1.040000e+00	1.322606e-04	
407	1.050000e+00	1.344223e-04	
408	1.060000e+00	1.365578e-04	
409	1.070000e+00	1.386675e-04	
410	1.080000e+00	1.407518e-04	
411	1.090000e+00	1.428109e-04	
412	1.100000e+00	1.448453e-04	
413	1.110000e+00	1.468553e-04	
414	1.120000e+00	1.488412e-04	
415	1.130000e+00	1.508032e-04	
416	1.140000e+00	1.527419e-04	
417	1.150000e+00	1.546574e-04	
418	1.160000e+00	1.565502e-04	
419	1.170000e+00	1.584204e-04	
420	1.180000e+00	1.602685e-04	
421	1.190000e+00	1.620947e-04	
422	1.200000e+00	1.638994e-04	
423	1.210000e+00	1.656827e-04	
424	1.220000e+00	1.674451e-04	
425	1.230000e+00	1.691868e-04	
426	1.240000e+00	1.709080e-04	
427	1.250000e+00	1.726091e-04	
428	1.260000e+00	1.742904e-04	
429	1.270000e+00	1.759520e-04	
430	1.280000e+00	1.775944e-04	
431	1.290000e+00	1.792176e-04	
432	1.300000e+00	1.808221e-04	
433	1.310000e+00	1.824079e-04	
434	1.320000e+00	1.839755e-04	
435	1.330000e+00	1.855250e-04	
436	1.340000e+00	1.870567e-04	
437	1.350000e+00	1.885708e-04	
438	1.360000e+00	1.900676e-04	
439	1.370000e+00	1.915472e-04	
440	1.380000e+00	1.930099e-04	
441	1.390000e+00	1.944559e-04	
442	1.400000e+00	1.958855e-04	
443	1.410000e+00	1.972989e-04	
444	1.420000e+00	1.986962e-04	
445	1.430000e+00	2.000777e-04	
446	1.440000e+00	2.014435e-04	
447	1.450000e+00	2.027940e-04	
448	1.460000e+00	2.041292e-04	
449	1.470000e+00	2.054495e-04	
450	1.480000e+00	2.067549e-04	
451	1.490000e+00	2.080456e-04	
452	1.500000e+00	2.093219e-04	
453	0.000000e+00	9.877774e-13	
454	1.000000e-02	1.344554e-12	
455	2.000000e-02	1.929166e-12	
456	3.000000e-02	2.767567e-12	
457	4.000000e-02	3.969726e-12	
458	5.000000e-02	5.693138e-12	
459	6.000000e-02	8.163313e-12	
460	7.000000e-02	1.170302e-11	

Index   v-sweep         vs#branch       
--------------------------------------------------------------------------------
461	8.000000e-02	1.677409e-11	
462	9.000000e-02	2.532864e-11	
463	1.000000e-01	3.628335e-11	
464	1.100000e-01	5.196066e-11	
465	1.200000e-01	7.438710e-11	
466	1.300000e-01	1.064528e-10	
467	1.400000e-01	1.522756e-10	
468	1.500000e-01	2.177161e-10	
469	1.600000e-01	3.110992e-10	
470	1.700000e-01	4.442001e-10	
471	1.800000e-01	6.336941e-10	
472	1.900000e-01	9.031304e-10	
473	2.000000e-01	1.285674e-09	
474	2.100000e-01	1.827892e-09	
475	2.200000e-01	2.594944e-09	
476	2.300000e-01	3.677637e-09	
477	2.400000e-01	5.201872e-09	
478	2.500000e-01	7.340609e-09	
479	2.600000e-01	1.033002e-08	
480	2.700000e-01	1.449134e-08	
481	2.800000e-01	2.025755e-08	
482	2.900000e-01	2.820684e-08	
483	3.000000e-01	3.910366e-08	
484	3.100000e-01	5.394782e-08	
485	3.200000e-01	7.403175e-08	
486	3.300000e-01	1.010058e-07	
487	3.400000e-01	1.369511e-07	
488	3.500000e-01	1.844586e-07	
489	3.600000e-01	2.467149e-07	
490	3.700000e-01	3.275944e-07	
491	3.800000e-01	4.317573e-07	
492	3.900000e-01	5.647567e-07	
493	4.000000e-01	7.331521e-07	
494	4.100000e-01	9.446282e-07	
495	4.200000e-01	1.208106e-06	
496	4.300000e-01	1.533833e-06	
497	4.400000e-01	1.933408e-06	
498	4.500000e-01	2.419717e-06	
499	4.600000e-01	3.006693e-06	
500	4.700000e-01	3.708835e-06	
501	4.800000e-01	4.540337e-06	
502	4.900000e-01	5.513507e-06	
503	5.000000e-01	6.636007e-06	
504	5.100000e-01	7.908968e-06	
505	5.200000e-01	9.333435e-06	
506	5.300000e-01	1.091545e-05	
507	5.400000e-01	1.265940e-05	
508	5.500000e-01	1.456477e-05	
509	5.600000e-01	1.662676e-05	
510	5.700000e-01	1.883722e-05	
511	5.800000e-01	2.118542e-05	
512	5.900000e-01	2.365882e-05	
513	6.000000e-01	2.624370e-05	
514	6.100000e-01	2.892577e-05	
515	6.200000e-01	3.169074e-05	
516	6.300000e-01	3.449249e-05	
517	6.400000e-01	3.738877e-05	
518	6.500000e-01	4.032818e-05	

Index   v-sweep         vs#branch       
--------------------------------------------------------------------------------
519	6.600000e-01	4.329953e-05	
520	6.700000e-01	4.629284e-05	
521	6.800000e-01	4.929925e-05	
522	6.900000e-01	5.231108e-05	
523	7.000000e-01	5.532167e-05	
524	7.100000e-01	5.832533e-05	
525	7.200000e-01	6.131726e-05	
526	7.300000e-01	6.429341e-05	
527	7.400000e-01	6.725040e-05	
528	7.500000e-01	7.018548e-05	
529	7.600000e-01	7.309635e-05	
530	7.700000e-01	7.598120e-05	
531	7.800000e-01	7.883855e-05	
532	7.900000e-01	8.166725e-05	
533	8.000000e-01	8.446643e-05	
534	8.100000e-01	8.723541e-05	
535	8.200000e-01	8.997372e-05	
536	8.300000e-01	9.268104e-05	
537	8.400000e-01	9.535719e-05	
538	8.500000e-01	9.800208e-05	
539	8.600000e-01	1.006157e-04	
540	8.700000e-01	1.031982e-04	
541	8.800000e-01	1.057496e-04	
542	8.900000e-01	1.082702e-04	
543	9.000000e-01	1.107602e-04	
544	9.100000e-01	1.132198e-04	
545	9.200000e-01	1.156494e-04	
546	9.300000e-01	1.180492e-04	
547	9.400000e-01	1.204196e-04	
548	9.500000e-01	1.227609e-04	
549	9.600000e-01	1.250734e-04	
550	9.700000e-01	1.273576e-04	
551	9.800000e-01	1.296137e-04	
552	9.900000e-01	1.318421e-04	
553	1.000000e+00	1.340433e-04	
554	1.010000e+00	1.362175e-04	
555	1.020000e+00	1.383651e-04	
556	1.030000e+00	1.404865e-04	
557	1.040000e+00	1.425820e-04	
558	1.050000e+00	1.446520e-04	
559	1.060000e+00	1.466968e-04	
560	1.070000e+00	1.487168e-04	
561	1.080000e+00	1.507124e-04	
562	1.090000e+00	1.526838e-04	
563	1.100000e+00	1.546314e-04	
564	1.110000e+00	1.565556e-04	
565	1.120000e+00	1.584566e-04	
566	1.130000e+00	1.603348e-04	
567	1.140000e+00	1.621905e-04	
568	1.150000e+00	1.640240e-04	
569	1.160000e+00	1.658356e-04	
570	1.170000e+00	1.676257e-04	
571	1.180000e+00	1.693945e-04	
572	1.190000e+00	1.711423e-04	
573	1.200000e+00	1.728694e-04	
574	1.210000e+00	1.745761e-04	
575	1.220000e+00	1.762627e-04	
576	1.230000e+00	1.779294e-04	

Index   v-sweep         vs#branch       
--------------------------------------------------------------------------------
577	1.240000e+00	1.795766e-04	
578	1.250000e+00	1.812044e-04	
579	1.260000e+00	1.828132e-04	
580	1.270000e+00	1.844032e-04	
581	1.280000e+00	1.859747e-04	
582	1.290000e+00	1.875278e-04	
583	1.300000e+00	1.890630e-04	
584	1.310000e+00	1.905803e-04	
585	1.320000e+00	1.920801e-04	
586	1.330000e+00	1.935626e-04	
587	1.340000e+00	1.950279e-04	
588	1.350000e+00	1.964764e-04	
589	1.360000e+00	1.979083e-04	
590	1.370000e+00	1.993237e-04	
591	1.380000e+00	2.007230e-04	
592	1.390000e+00	2.021062e-04	
593	1.400000e+00	2.034737e-04	
594	1.410000e+00	2.048256e-04	
595	1.420000e+00	2.061621e-04	
596	1.430000e+00	2.074834e-04	
597	1.440000e+00	2.087898e-04	
598	1.450000e+00	2.100814e-04	
599	1.460000e+00	2.113584e-04	
600	1.470000e+00	2.126210e-04	
601	1.480000e+00	2.138693e-04	
602	1.490000e+00	2.151037e-04	
603	1.500000e+00	2.163241e-04	
604	0.000000e+00	3.802857e-12	
605	1.000000e-02	5.179405e-12	
606	2.000000e-02	7.436916e-12	
607	3.000000e-02	1.067638e-11	
608	4.000000e-02	1.532378e-11	
609	5.000000e-02	2.317943e-11	
610	6.000000e-02	3.325101e-11	
611	7.000000e-02	4.768511e-11	
612	8.000000e-02	6.836303e-11	
613	9.000000e-02	9.797210e-11	
614	1.000000e-01	1.403476e-10	
615	1.100000e-01	2.009572e-10	
616	1.200000e-01	2.875868e-10	
617	1.300000e-01	4.113064e-10	
618	1.400000e-01	5.878303e-10	
619	1.500000e-01	8.394210e-10	
620	1.600000e-01	1.197526e-09	
621	1.700000e-01	1.706327e-09	
622	1.800000e-01	2.427883e-09	
623	1.900000e-01	3.448995e-09	
624	2.000000e-01	4.890513e-09	
625	2.100000e-01	6.919840e-09	
626	2.200000e-01	9.767530e-09	
627	2.300000e-01	1.374902e-08	
628	2.400000e-01	1.929264e-08	
629	2.500000e-01	2.697515e-08	
630	2.600000e-01	3.756591e-08	
631	2.700000e-01	5.208067e-08	
632	2.800000e-01	7.184554e-08	
633	2.900000e-01	9.857148e-08	
634	3.000000e-01	1.344389e-07	

Index   v-sweep         vs#branch       
--------------------------------------------------------------------------------
635	3.100000e-01	1.821917e-07	
636	3.200000e-01	2.452412e-07	
637	3.300000e-01	3.277779e-07	
638	3.400000e-01	4.348938e-07	
639	3.500000e-01	5.727141e-07	
640	3.600000e-01	7.485378e-07	
641	3.700000e-01	9.709820e-07	
642	3.800000e-01	1.250117e-06	
643	3.900000e-01	1.597567e-06	
644	4.000000e-01	2.026526e-06	
645	4.100000e-01	2.551636e-06	
646	4.200000e-01	3.188614e-06	
647	4.300000e-01	3.953476e-06	
648	4.400000e-01	4.861015e-06	
649	4.500000e-01	5.921696e-06	
650	4.600000e-01	7.136545e-06	
651	4.700000e-01	8.498437e-06	
652	4.800000e-01	1.000774e-05	
653	4.900000e-01	1.167295e-05	
654	5.000000e-01	1.349892e-05	
655	5.100000e-01	1.548464e-05	
656	5.200000e-01	1.762458e-05	
657	5.300000e-01	1.990991e-05	
658	5.400000e-01	2.232939e-05	
659	5.500000e-01	2.487011e-05	
660	5.600000e-01	2.751817e-05	
661	5.700000e-01	3.025929e-05	
662	5.800000e-01	3.307926e-05	
663	5.900000e-01	3.593405e-05	
664	6.000000e-01	3.887775e-05	
665	6.100000e-01	4.186125e-05	
666	6.200000e-01	4.487369e-05	
667	6.300000e-01	4.790535e-05	
668	6.400000e-01	5.094767e-05	
669	6.500000e-01	5.399320e-05	
670	6.600000e-01	5.703551e-05	
671	6.700000e-01	6.006913e-05	
672	6.800000e-01	6.308940e-05	
673	6.900000e-01	6.609245e-05	
674	7.000000e-01	6.907502e-05	
675	7.100000e-01	7.203445e-05	
676	7.200000e-01	7.496857e-05	
677	7.300000e-01	7.787563e-05	
678	7.400000e-01	8.075423e-05	
679	7.500000e-01	8.360329e-05	
680	7.600000e-01	8.642197e-05	
681	7.700000e-01	8.920966e-05	
682	7.800000e-01	9.196592e-05	
683	7.900000e-01	9.469048e-05	
684	8.000000e-01	9.738318e-05	
685	8.100000e-01	1.000440e-04	
686	8.200000e-01	1.026729e-04	
687	8.300000e-01	1.052700e-04	
688	8.400000e-01	1.078355e-04	
689	8.500000e-01	1.103696e-04	
690	8.600000e-01	1.128726e-04	
691	8.700000e-01	1.153446e-04	
692	8.800000e-01	1.177862e-04	

Index   v-sweep         vs#branch       
--------------------------------------------------------------------------------
693	8.900000e-01	1.201975e-04	
694	9.000000e-01	1.225789e-04	
695	9.100000e-01	1.249307e-04	
696	9.200000e-01	1.272534e-04	
697	9.300000e-01	1.295472e-04	
698	9.400000e-01	1.318126e-04	
699	9.500000e-01	1.340500e-04	
700	9.600000e-01	1.362596e-04	
701	9.700000e-01	1.384419e-04	
702	9.800000e-01	1.405972e-04	
703	9.900000e-01	1.427260e-04	
704	1.000000e+00	1.448286e-04	
705	1.010000e+00	1.469053e-04	
706	1.020000e+00	1.489565e-04	
707	1.030000e+00	1.509825e-04	
708	1.040000e+00	1.529838e-04	
709	1.050000e+00	1.549607e-04	
710	1.060000e+00	1.569135e-04	
711	1.070000e+00	1.588425e-04	
712	1.080000e+00	1.607482e-04	
713	1.090000e+00	1.626307e-04	
714	1.100000e+00	1.644905e-04	
715	1.110000e+00	1.663278e-04	
716	1.120000e+00	1.681431e-04	
717	1.130000e+00	1.699365e-04	
718	1.140000e+00	1.717084e-04	
719	1.150000e+00	1.734591e-04	
720	1.160000e+00	1.751888e-04	
721	1.170000e+00	1.768980e-04	
722	1.180000e+00	1.785868e-04	
723	1.190000e+00	1.802556e-04	
724	1.200000e+00	1.819046e-04	
725	1.210000e+00	1.835341e-04	
726	1.220000e+00	1.851443e-04	
727	1.230000e+00	1.867356e-04	
728	1.240000e+00	1.883082e-04	
729	1.250000e+00	1.898623e-04	
730	1.260000e+00	1.913982e-04	
731	1.270000e+00	1.929161e-04	
732	1.280000e+00	1.944163e-04	
733	1.290000e+00	1.958991e-04	
734	1.300000e+00	1.973646e-04	
735	1.310000e+00	1.988131e-04	
736	1.320000e+00	2.002448e-04	
737	1.330000e+00	2.016600e-04	
738	1.340000e+00	2.030588e-04	
739	1.350000e+00	2.044415e-04	
740	1.360000e+00	2.058082e-04	
741	1.370000e+00	2.071593e-04	
742	1.380000e+00	2.084949e-04	
743	1.390000e+00	2.098152e-04	
744	1.400000e+00	2.111204e-04	
745	1.410000e+00	2.124107e-04	
746	1.420000e+00	2.136863e-04	
747	1.430000e+00	2.149474e-04	
748	1.440000e+00	2.161942e-04	
749	1.450000e+00	2.174268e-04	
750	1.460000e+00	2.186455e-04	

Index   v-sweep         vs#branch       
--------------------------------------------------------------------------------
751	1.470000e+00	2.198504e-04	
752	1.480000e+00	2.210417e-04	
753	1.490000e+00	2.222196e-04	
754	1.500000e+00	2.233842e-04	
755	0.000000e+00	1.825247e-11	
756	1.000000e-02	2.627973e-11	
757	2.000000e-02	3.782706e-11	
758	3.000000e-02	5.443185e-11	
759	4.000000e-02	7.829900e-11	
760	5.000000e-02	1.125882e-10	
761	6.000000e-02	1.618231e-10	
762	7.000000e-02	2.324729e-10	
763	8.000000e-02	3.337774e-10	
764	9.000000e-02	4.789138e-10	
765	1.000000e-01	6.866413e-10	
766	1.100000e-01	9.836112e-10	
767	1.200000e-01	1.407596e-09	
768	1.300000e-01	2.011981e-09	
769	1.400000e-01	2.871967e-09	
770	1.500000e-01	4.093086e-09	
771	1.600000e-01	5.822686e-09	
772	1.700000e-01	8.264853e-09	
773	1.800000e-01	1.170150e-08	
774	1.900000e-01	1.651914e-08	
775	2.000000e-01	2.324352e-08	
776	2.100000e-01	3.258355e-08	
777	2.200000e-01	4.548595e-08	
778	2.300000e-01	6.320174e-08	
779	2.400000e-01	8.736539e-08	
780	2.500000e-01	1.200869e-07	
781	2.600000e-01	1.640566e-07	
782	2.700000e-01	2.226621e-07	
783	2.800000e-01	3.001177e-07	
784	2.900000e-01	4.016046e-07	
785	3.000000e-01	5.334234e-07	
786	3.100000e-01	7.031560e-07	
787	3.200000e-01	9.198327e-07	
788	3.300000e-01	1.194089e-06	
789	3.400000e-01	1.538284e-06	
790	3.500000e-01	1.966529e-06	
791	3.600000e-01	2.494560e-06	
792	3.700000e-01	3.139647e-06	
793	3.800000e-01	3.919324e-06	
794	3.900000e-01	4.849285e-06	
795	4.000000e-01	5.939502e-06	
796	4.100000e-01	7.187440e-06	
797	4.200000e-01	8.579616e-06	
798	4.300000e-01	1.011389e-05	
799	4.400000e-01	1.180075e-05	
800	4.500000e-01	1.364700e-05	
801	4.600000e-01	1.565274e-05	
802	4.700000e-01	1.781303e-05	
803	4.800000e-01	2.011946e-05	
804	4.900000e-01	2.256106e-05	
805	5.000000e-01	2.512513e-05	
806	5.100000e-01	2.779796e-05	
807	5.200000e-01	3.056533e-05	
808	5.300000e-01	3.341311e-05	

Index   v-sweep         vs#branch       
--------------------------------------------------------------------------------
809	5.400000e-01	3.629646e-05	
810	5.500000e-01	3.927099e-05	
811	5.600000e-01	4.228672e-05	
812	5.700000e-01	4.533260e-05	
813	5.800000e-01	4.839878e-05	
814	5.900000e-01	5.147652e-05	
815	6.000000e-01	5.455818e-05	
816	6.100000e-01	5.763716e-05	
817	6.200000e-01	6.070781e-05	
818	6.300000e-01	6.376532e-05	
819	6.400000e-01	6.680567e-05	
820	6.500000e-01	6.982547e-05	
821	6.600000e-01	7.282195e-05	
822	6.700000e-01	7.579283e-05	
823	6.800000e-01	7.873628e-05	
824	6.900000e-01	8.165083e-05	
825	7.000000e-01	8.453533e-05	
826	7.100000e-01	8.738891e-05	
827	7.200000e-01	9.021090e-05	
828	7.300000e-01	9.300084e-05	
829	7.400000e-01	9.575843e-05	
830	7.500000e-01	9.848349e-05	
831	7.600000e-01	1.011760e-04	
832	7.700000e-01	1.038359e-04	
833	7.800000e-01	1.064633e-04	
834	7.900000e-01	1.090585e-04	
835	8.000000e-01	1.116216e-04	
836	8.100000e-01	1.141528e-04	
837	8.200000e-01	1.166525e-04	
838	8.300000e-01	1.191210e-04	
839	8.400000e-01	1.215586e-04	
840	8.500000e-01	1.239657e-04	
841	8.600000e-01	1.263426e-04	
842	8.700000e-01	1.286897e-04	
843	8.800000e-01	1.310074e-04	
844	8.900000e-01	1.332960e-04	
845	9.000000e-01	1.355560e-04	
846	9.100000e-01	1.377877e-04	
847	9.200000e-01	1.399915e-04	
848	9.300000e-01	1.421679e-04	
849	9.400000e-01	1.443171e-04	
850	9.500000e-01	1.464396e-04	
851	9.600000e-01	1.485357e-04	
852	9.700000e-01	1.506058e-04	
853	9.800000e-01	1.526503e-04	
854	9.900000e-01	1.546696e-04	
855	1.000000e+00	1.566640e-04	
856	1.010000e+00	1.586338e-04	
857	1.020000e+00	1.605794e-04	
858	1.030000e+00	1.625012e-04	
859	1.040000e+00	1.643995e-04	
860	1.050000e+00	1.662746e-04	
861	1.060000e+00	1.681269e-04	
862	1.070000e+00	1.699566e-04	
863	1.080000e+00	1.717642e-04	
864	1.090000e+00	1.735498e-04	
865	1.100000e+00	1.753139e-04	
866	1.110000e+00	1.770567e-04	

Index   v-sweep         vs#branch       
--------------------------------------------------------------------------------
867	1.120000e+00	1.787785e-04	
868	1.130000e+00	1.804797e-04	
869	1.140000e+00	1.821605e-04	
870	1.150000e+00	1.838211e-04	
871	1.160000e+00	1.854620e-04	
872	1.170000e+00	1.870832e-04	
873	1.180000e+00	1.886852e-04	
874	1.190000e+00	1.902682e-04	
875	1.200000e+00	1.918325e-04	
876	1.210000e+00	1.933782e-04	
877	1.220000e+00	1.949057e-04	
878	1.230000e+00	1.964152e-04	
879	1.240000e+00	1.979070e-04	
880	1.250000e+00	1.993812e-04	
881	1.260000e+00	2.008382e-04	
882	1.270000e+00	2.022781e-04	
883	1.280000e+00	2.037013e-04	
884	1.290000e+00	2.051078e-04	
885	1.300000e+00	2.064980e-04	
886	1.310000e+00	2.078721e-04	
887	1.320000e+00	2.092302e-04	
888	1.330000e+00	2.105726e-04	
889	1.340000e+00	2.118995e-04	
890	1.350000e+00	2.132111e-04	
891	1.360000e+00	2.145076e-04	
892	1.370000e+00	2.157892e-04	
893	1.380000e+00	2.170561e-04	
894	1.390000e+00	2.183085e-04	
895	1.400000e+00	2.195465e-04	
896	1.410000e+00	2.207704e-04	
897	1.420000e+00	2.219803e-04	
898	1.430000e+00	2.231765e-04	
899	1.440000e+00	2.243590e-04	
900	1.450000e+00	2.255282e-04	
901	1.460000e+00	2.266840e-04	
902	1.470000e+00	2.278268e-04	
903	1.480000e+00	2.289566e-04	
904	1.490000e+00	2.300737e-04	
905	1.500000e+00	2.311782e-04	
906	0.000000e+00	1.258752e-10	
907	1.000000e-02	1.823407e-10	
908	2.000000e-02	2.639900e-10	
909	3.000000e-02	3.819525e-10	
910	4.000000e-02	5.522071e-10	
911	5.000000e-02	7.976497e-10	
912	6.000000e-02	1.151011e-09	
913	7.000000e-02	1.658958e-09	
914	8.000000e-02	2.387814e-09	
915	9.000000e-02	3.431510e-09	
916	1.000000e-01	4.922511e-09	
917	1.100000e-01	7.046734e-09	
918	1.200000e-01	1.006368e-08	
919	1.300000e-01	1.433325e-08	
920	1.400000e-01	2.035107e-08	
921	1.500000e-01	2.879411e-08	
922	1.600000e-01	4.057812e-08	
923	1.700000e-01	5.692562e-08	
924	1.800000e-01	7.945695e-08	

Index   v-sweep         vs#branch       
--------------------------------------------------------------------------------
925	1.900000e-01	1.102933e-07	
926	2.000000e-01	1.521772e-07	
927	2.100000e-01	2.086101e-07	
928	2.200000e-01	2.840068e-07	
929	2.300000e-01	3.838663e-07	
930	2.400000e-01	5.149567e-07	
931	2.500000e-01	6.855130e-07	
932	2.600000e-01	9.054375e-07	
933	2.700000e-01	1.186486e-06	
934	2.800000e-01	1.542398e-06	
935	2.900000e-01	1.988913e-06	
936	3.000000e-01	2.543547e-06	
937	3.100000e-01	3.224972e-06	
938	3.200000e-01	4.051625e-06	
939	3.300000e-01	5.038769e-06	
940	3.400000e-01	6.192279e-06	
941	3.500000e-01	7.500371e-06	
942	3.600000e-01	8.944384e-06	
943	3.700000e-01	1.052707e-05	
944	3.800000e-01	1.226188e-05	
945	3.900000e-01	1.415578e-05	
946	4.000000e-01	1.620858e-05	
947	4.100000e-01	1.841513e-05	
948	4.200000e-01	2.076690e-05	
949	4.300000e-01	2.325291e-05	
950	4.400000e-01	2.586055e-05	
951	4.500000e-01	2.857620e-05	
952	4.600000e-01	3.138583e-05	
953	4.700000e-01	3.427546e-05	
954	4.800000e-01	3.720050e-05	
955	4.900000e-01	4.021642e-05	
956	5.000000e-01	4.327347e-05	
957	5.100000e-01	4.636069e-05	
958	5.200000e-01	4.946821e-05	
959	5.300000e-01	5.258728e-05	
960	5.400000e-01	5.571023e-05	
961	5.500000e-01	5.883040e-05	
962	5.600000e-01	6.194206e-05	
963	5.700000e-01	6.504034e-05	
964	5.800000e-01	6.812113e-05	
965	5.900000e-01	7.118099e-05	
966	6.000000e-01	7.421707e-05	
967	6.100000e-01	7.722703e-05	
968	6.200000e-01	8.020898e-05	
969	6.300000e-01	8.316142e-05	
970	6.400000e-01	8.608316e-05	
971	6.500000e-01	8.897328e-05	
972	6.600000e-01	9.183111e-05	
973	6.700000e-01	9.465617e-05	
974	6.800000e-01	9.744813e-05	
975	6.900000e-01	1.002068e-04	
976	7.000000e-01	1.029322e-04	
977	7.100000e-01	1.056242e-04	
978	7.200000e-01	1.082830e-04	
979	7.300000e-01	1.109088e-04	
980	7.400000e-01	1.135018e-04	
981	7.500000e-01	1.160622e-04	
982	7.600000e-01	1.185904e-04	

Index   v-sweep         vs#branch       
--------------------------------------------------------------------------------
983	7.700000e-01	1.210867e-04	
984	7.800000e-01	1.235514e-04	
985	7.900000e-01	1.259848e-04	
986	8.000000e-01	1.283875e-04	
987	8.100000e-01	1.307597e-04	
988	8.200000e-01	1.331018e-04	
989	8.300000e-01	1.354143e-04	
990	8.400000e-01	1.376975e-04	
991	8.500000e-01	1.399519e-04	
992	8.600000e-01	1.421778e-04	
993	8.700000e-01	1.443756e-04	
994	8.800000e-01	1.465458e-04	
995	8.900000e-01	1.486887e-04	
996	9.000000e-01	1.508047e-04	
997	9.100000e-01	1.528943e-04	
998	9.200000e-01	1.549577e-04	
999	9.300000e-01	1.569953e-04	
1000	9.400000e-01	1.590076e-04	
1001	9.500000e-01	1.609949e-04	
1002	9.600000e-01	1.629576e-04	
1003	9.700000e-01	1.648959e-04	
1004	9.800000e-01	1.668104e-04	
1005	9.900000e-01	1.687012e-04	
1006	1.000000e+00	1.705688e-04	
1007	1.010000e+00	1.724134e-04	
1008	1.020000e+00	1.742355e-04	
1009	1.030000e+00	1.760352e-04	
1010	1.040000e+00	1.778131e-04	
1011	1.050000e+00	1.795692e-04	
1012	1.060000e+00	1.813041e-04	
1013	1.070000e+00	1.830179e-04	
1014	1.080000e+00	1.847110e-04	
1015	1.090000e+00	1.863836e-04	
1016	1.100000e+00	1.880361e-04	
1017	1.110000e+00	1.896687e-04	
1018	1.120000e+00	1.912818e-04	
1019	1.130000e+00	1.928754e-04	
1020	1.140000e+00	1.944501e-04	
1021	1.150000e+00	1.960059e-04	
1022	1.160000e+00	1.975433e-04	
1023	1.170000e+00	1.990623e-04	
1024	1.180000e+00	2.005633e-04	
1025	1.190000e+00	2.020466e-04	
1026	1.200000e+00	2.035123e-04	
1027	1.210000e+00	2.049607e-04	
1028	1.220000e+00	2.063921e-04	
1029	1.230000e+00	2.078066e-04	
1030	1.240000e+00	2.092045e-04	
1031	1.250000e+00	2.105860e-04	
1032	1.260000e+00	2.119514e-04	
1033	1.270000e+00	2.133009e-04	
1034	1.280000e+00	2.146346e-04	
1035	1.290000e+00	2.159528e-04	
1036	1.300000e+00	2.172556e-04	
1037	1.310000e+00	2.185434e-04	
1038	1.320000e+00	2.198162e-04	
1039	1.330000e+00	2.210744e-04	
1040	1.340000e+00	2.223180e-04	

Index   v-sweep         vs#branch       
--------------------------------------------------------------------------------
1041	1.350000e+00	2.235472e-04	
1042	1.360000e+00	2.247623e-04	
1043	1.370000e+00	2.259635e-04	
1044	1.380000e+00	2.271508e-04	
1045	1.390000e+00	2.283246e-04	
1046	1.400000e+00	2.294849e-04	
1047	1.410000e+00	2.306319e-04	
1048	1.420000e+00	2.317659e-04	
1049	1.430000e+00	2.328869e-04	
1050	1.440000e+00	2.339952e-04	
1051	1.450000e+00	2.350909e-04	
1052	1.460000e+00	2.361741e-04	
1053	1.470000e+00	2.372451e-04	
1054	1.480000e+00	2.383039e-04	
1055	1.490000e+00	2.393508e-04	
1056	1.500000e+00	2.403858e-04	
1057	0.000000e+00	1.251192e-09	
1058	1.000000e-02	1.813709e-09	
1059	2.000000e-02	2.624757e-09	
1060	3.000000e-02	3.791412e-09	
1061	4.000000e-02	5.465157e-09	
1062	5.000000e-02	7.859239e-09	
1063	6.000000e-02	1.127214e-08	
1064	7.000000e-02	1.611896e-08	
1065	8.000000e-02	2.297285e-08	
1066	9.000000e-02	3.261873e-08	
1067	1.000000e-01	4.612204e-08	
1068	1.100000e-01	6.491486e-08	
1069	1.200000e-01	9.090182e-08	
1070	1.300000e-01	1.265877e-07	
1071	1.400000e-01	1.752284e-07	
1072	1.500000e-01	2.410054e-07	
1073	1.600000e-01	3.292206e-07	
1074	1.700000e-01	4.464887e-07	
1075	1.800000e-01	6.010065e-07	
1076	1.900000e-01	8.027946e-07	
1077	2.000000e-01	1.063932e-06	
1078	2.100000e-01	1.398741e-06	
1079	2.200000e-01	1.823838e-06	
1080	2.300000e-01	2.357916e-06	
1081	2.400000e-01	3.021002e-06	
1082	2.500000e-01	3.832660e-06	
1083	2.600000e-01	4.807913e-06	
1084	2.700000e-01	5.948551e-06	
1085	2.800000e-01	7.234720e-06	
1086	2.900000e-01	8.646884e-06	
1087	3.000000e-01	1.019402e-05	
1088	3.100000e-01	1.189245e-05	
1089	3.200000e-01	1.375032e-05	
1090	3.300000e-01	1.576849e-05	
1091	3.400000e-01	1.794291e-05	
1092	3.500000e-01	2.026608e-05	
1093	3.600000e-01	2.272796e-05	
1094	3.700000e-01	2.531672e-05	
1095	3.800000e-01	2.801933e-05	
1096	3.900000e-01	3.082218e-05	
1097	4.000000e-01	3.371147e-05	
1098	4.100000e-01	3.663943e-05	

Index   v-sweep         vs#branch       
--------------------------------------------------------------------------------
1099	4.200000e-01	3.966790e-05	
1100	4.300000e-01	4.274360e-05	
1101	4.400000e-01	4.585514e-05	
1102	4.500000e-01	4.899215e-05	
1103	4.600000e-01	5.214534e-05	
1104	4.700000e-01	5.530647e-05	
1105	4.800000e-01	5.846830e-05	
1106	4.900000e-01	6.162457e-05	
1107	5.000000e-01	6.476986e-05	
1108	5.100000e-01	6.789959e-05	
1109	5.200000e-01	7.100988e-05	
1110	5.300000e-01	7.409748e-05	
1111	5.400000e-01	7.715971e-05	
1112	5.500000e-01	8.019436e-05	
1113	5.600000e-01	8.319966e-05	
1114	5.700000e-01	8.617420e-05	
1115	5.800000e-01	8.911689e-05	
1116	5.900000e-01	9.202687e-05	
1117	6.000000e-01	9.490355e-05	
1118	6.100000e-01	9.774649e-05	
1119	6.200000e-01	1.005554e-04	
1120	6.300000e-01	1.033302e-04	
1121	6.400000e-01	1.060709e-04	
1122	6.500000e-01	1.087775e-04	
1123	6.600000e-01	1.114501e-04	
1124	6.700000e-01	1.140890e-04	
1125	6.800000e-01	1.166944e-04	
1126	6.900000e-01	1.192666e-04	
1127	7.000000e-01	1.218060e-04	
1128	7.100000e-01	1.243128e-04	
1129	7.200000e-01	1.267876e-04	
1130	7.300000e-01	1.292306e-04	
1131	7.400000e-01	1.316423e-04	
1132	7.500000e-01	1.340230e-04	
1133	7.600000e-01	1.363732e-04	
1134	7.700000e-01	1.386934e-04	
1135	7.800000e-01	1.409838e-04	
1136	7.900000e-01	1.432450e-04	
1137	8.000000e-01	1.454774e-04	
1138	8.100000e-01	1.476813e-04	
1139	8.200000e-01	1.498572e-04	
1140	8.300000e-01	1.520055e-04	
1141	8.400000e-01	1.541265e-04	
1142	8.500000e-01	1.562208e-04	
1143	8.600000e-01	1.582886e-04	
1144	8.700000e-01	1.603304e-04	
1145	8.800000e-01	1.623466e-04	
1146	8.900000e-01	1.643374e-04	
1147	9.000000e-01	1.663034e-04	
1148	9.100000e-01	1.682448e-04	
1149	9.200000e-01	1.701621e-04	
1150	9.300000e-01	1.720555e-04	
1151	9.400000e-01	1.739254e-04	
1152	9.500000e-01	1.757722e-04	
1153	9.600000e-01	1.775961e-04	
1154	9.700000e-01	1.793976e-04	
1155	9.800000e-01	1.811770e-04	
1156	9.900000e-01	1.829345e-04	

Index   v-sweep         vs#branch       
--------------------------------------------------------------------------------
1157	1.000000e+00	1.846704e-04	
1158	1.010000e+00	1.863852e-04	
1159	1.020000e+00	1.880790e-04	
1160	1.030000e+00	1.897522e-04	
1161	1.040000e+00	1.914051e-04	
1162	1.050000e+00	1.930380e-04	
1163	1.060000e+00	1.946511e-04	
1164	1.070000e+00	1.962448e-04	
1165	1.080000e+00	1.978192e-04	
1166	1.090000e+00	1.993747e-04	
1167	1.100000e+00	2.009115e-04	
1168	1.110000e+00	2.024299e-04	
1169	1.120000e+00	2.039302e-04	
1170	1.130000e+00	2.054125e-04	
1171	1.140000e+00	2.068772e-04	
1172	1.150000e+00	2.083244e-04	
1173	1.160000e+00	2.097545e-04	
1174	1.170000e+00	2.111677e-04	
1175	1.180000e+00	2.125641e-04	
1176	1.190000e+00	2.139440e-04	
1177	1.200000e+00	2.153077e-04	
1178	1.210000e+00	2.166553e-04	
1179	1.220000e+00	2.179870e-04	
1180	1.230000e+00	2.193032e-04	
1181	1.240000e+00	2.206039e-04	
1182	1.250000e+00	2.218895e-04	
1183	1.260000e+00	2.231600e-04	
1184	1.270000e+00	2.244157e-04	
1185	1.280000e+00	2.256568e-04	
1186	1.290000e+00	2.268835e-04	
1187	1.300000e+00	2.280960e-04	
1188	1.310000e+00	2.292944e-04	
1189	1.320000e+00	2.304789e-04	
1190	1.330000e+00	2.316498e-04	
1191	1.340000e+00	2.328071e-04	
1192	1.350000e+00	2.339511e-04	
1193	1.360000e+00	2.350820e-04	
1194	1.370000e+00	2.361998e-04	
1195	1.380000e+00	2.373048e-04	
1196	1.390000e+00	2.383972e-04	
1197	1.400000e+00	2.394771e-04	
1198	1.410000e+00	2.405446e-04	
1199	1.420000e+00	2.415999e-04	
1200	1.430000e+00	2.426432e-04	
1201	1.440000e+00	2.436746e-04	
1202	1.450000e+00	2.446943e-04	
1203	1.460000e+00	2.457024e-04	
1204	1.470000e+00	2.466990e-04	
1205	1.480000e+00	2.476843e-04	
1206	1.490000e+00	2.486585e-04	
1207	1.500000e+00	2.496217e-04	
1208	0.000000e+00	8.743036e-09	
1209	1.000000e-02	1.261676e-08	
1210	2.000000e-02	1.814181e-08	
1211	3.000000e-02	2.598346e-08	
1212	4.000000e-02	3.705280e-08	
1213	5.000000e-02	5.258576e-08	
1214	6.000000e-02	7.424152e-08	

Index   v-sweep         vs#branch       
--------------------------------------------------------------------------------
1215	7.000000e-02	1.042231e-07	
1216	8.000000e-02	1.454217e-07	
1217	9.000000e-02	2.015865e-07	
1218	1.000000e-01	2.775194e-07	
1219	1.100000e-01	3.792947e-07	
1220	1.200000e-01	5.144985e-07	
1221	1.300000e-01	6.924777e-07	
1222	1.400000e-01	9.245763e-07	
1223	1.500000e-01	1.224307e-06	
1224	1.600000e-01	1.607340e-06	
1225	1.700000e-01	2.091021e-06	
1226	1.800000e-01	2.693299e-06	
1227	1.900000e-01	3.429510e-06	
1228	2.000000e-01	4.305019e-06	
1229	2.100000e-01	5.307255e-06	
1230	2.200000e-01	6.423287e-06	
1231	2.300000e-01	7.665067e-06	
1232	2.400000e-01	9.051983e-06	
1233	2.500000e-01	1.059674e-05	
1234	2.600000e-01	1.230554e-05	
1235	2.700000e-01	1.417983e-05	
1236	2.800000e-01	1.621724e-05	
1237	2.900000e-01	1.841222e-05	
1238	3.000000e-01	2.075660e-05	
1239	3.100000e-01	2.324009e-05	
1240	3.200000e-01	2.585087e-05	
1241	3.300000e-01	2.857605e-05	
1242	3.400000e-01	3.140217e-05	
1243	3.500000e-01	3.431565e-05	
1244	3.600000e-01	3.726830e-05	
1245	3.700000e-01	4.032314e-05	
1246	3.800000e-01	4.342646e-05	
1247	3.900000e-01	4.656687e-05	
1248	4.000000e-01	4.973393e-05	
1249	4.100000e-01	5.291824e-05	
1250	4.200000e-01	5.611139e-05	
1251	4.300000e-01	5.930598e-05	
1252	4.400000e-01	6.249555e-05	
1253	4.500000e-01	6.567448e-05	
1254	4.600000e-01	6.883800e-05	
1255	4.700000e-01	7.198204e-05	
1256	4.800000e-01	7.510317e-05	
1257	4.900000e-01	7.819856e-05	
1258	5.000000e-01	8.126587e-05	
1259	5.100000e-01	8.430322e-05	
1260	5.200000e-01	8.730910e-05	
1261	5.300000e-01	9.028233e-05	
1262	5.400000e-01	9.322201e-05	
1263	5.500000e-01	9.612748e-05	
1264	5.600000e-01	9.899830e-05	
1265	5.700000e-01	1.018342e-04	
1266	5.800000e-01	1.046350e-04	
1267	5.900000e-01	1.074007e-04	
1268	6.000000e-01	1.101313e-04	
1269	6.100000e-01	1.128272e-04	
1270	6.200000e-01	1.154883e-04	
1271	6.300000e-01	1.181152e-04	
1272	6.400000e-01	1.207080e-04	

Index   v-sweep         vs#branch       
--------------------------------------------------------------------------------
1273	6.500000e-01	1.232671e-04	
1274	6.600000e-01	1.257929e-04	
1275	6.700000e-01	1.282858e-04	
1276	6.800000e-01	1.307463e-04	
1277	6.900000e-01	1.331748e-04	
1278	7.000000e-01	1.355716e-04	
1279	7.100000e-01	1.379373e-04	
1280	7.200000e-01	1.402723e-04	
1281	7.300000e-01	1.425771e-04	
1282	7.400000e-01	1.448520e-04	
1283	7.500000e-01	1.470976e-04	
1284	7.600000e-01	1.493142e-04	
1285	7.700000e-01	1.515023e-04	
1286	7.800000e-01	1.536624e-04	
1287	7.900000e-01	1.557948e-04	
1288	8.000000e-01	1.579000e-04	
1289	8.100000e-01	1.599783e-04	
1290	8.200000e-01	1.620303e-04	
1291	8.300000e-01	1.640562e-04	
1292	8.400000e-01	1.660565e-04	
1293	8.500000e-01	1.680316e-04	
1294	8.600000e-01	1.699818e-04	
1295	8.700000e-01	1.719074e-04	
1296	8.800000e-01	1.738090e-04	
1297	8.900000e-01	1.756868e-04	
1298	9.000000e-01	1.775412e-04	
1299	9.100000e-01	1.793725e-04	
1300	9.200000e-01	1.811810e-04	
1301	9.300000e-01	1.829672e-04	
1302	9.400000e-01	1.847312e-04	
1303	9.500000e-01	1.864736e-04	
1304	9.600000e-01	1.881944e-04	
1305	9.700000e-01	1.898942e-04	
1306	9.800000e-01	1.915731e-04	
1307	9.900000e-01	1.932315e-04	
1308	1.000000e+00	1.948696e-04	
1309	1.010000e+00	1.964879e-04	
1310	1.020000e+00	1.980864e-04	
1311	1.030000e+00	1.996656e-04	
1312	1.040000e+00	2.012256e-04	
1313	1.050000e+00	2.027668e-04	
1314	1.060000e+00	2.042894e-04	
1315	1.070000e+00	2.057937e-04	
1316	1.080000e+00	2.072799e-04	
1317	1.090000e+00	2.087484e-04	
1318	1.100000e+00	2.101992e-04	
1319	1.110000e+00	2.116327e-04	
1320	1.120000e+00	2.130491e-04	
1321	1.130000e+00	2.144487e-04	
1322	1.140000e+00	2.158316e-04	
1323	1.150000e+00	2.171982e-04	
1324	1.160000e+00	2.185485e-04	
1325	1.170000e+00	2.198829e-04	
1326	1.180000e+00	2.212016e-04	
1327	1.190000e+00	2.225047e-04	
1328	1.200000e+00	2.237925e-04	
1329	1.210000e+00	2.250652e-04	
1330	1.220000e+00	2.263229e-04	

Index   v-sweep         vs#branch       
--------------------------------------------------------------------------------
1331	1.230000e+00	2.275659e-04	
1332	1.240000e+00	2.287944e-04	
1333	1.250000e+00	2.300086e-04	
1334	1.260000e+00	2.312086e-04	
1335	1.270000e+00	2.323946e-04	
1336	1.280000e+00	2.335668e-04	
1337	1.290000e+00	2.347255e-04	
1338	1.300000e+00	2.358707e-04	
1339	1.310000e+00	2.370027e-04	
1340	1.320000e+00	2.381216e-04	
1341	1.330000e+00	2.392275e-04	
1342	1.340000e+00	2.403207e-04	
1343	1.350000e+00	2.414014e-04	
1344	1.360000e+00	2.424696e-04	
1345	1.370000e+00	2.435255e-04	
1346	1.380000e+00	2.445693e-04	
1347	1.390000e+00	2.456011e-04	
1348	1.400000e+00	2.466212e-04	
1349	1.410000e+00	2.476296e-04	
1350	1.420000e+00	2.486264e-04	
1351	1.430000e+00	2.496119e-04	
1352	1.440000e+00	2.505862e-04	
1353	1.450000e+00	2.515493e-04	
1354	1.460000e+00	2.525015e-04	
1355	1.470000e+00	2.534429e-04	
1356	1.480000e+00	2.543736e-04	
1357	1.490000e+00	2.552937e-04	
1358	1.500000e+00	2.562035e-04	




