Note: can't find init file.

Circuit: ** NMOSFET: Benchmarking of B4SOI Id-Vd by Jane Xi 05/09/2003.

Warning: Pd = 0 is less than W.
Warning: Ps = 0 is less than W.
Circuit: ** NMOSFET: Benchmarking of B4SOI Id-Vd by Jane Xi 05/09/2003.
Date: Wed Nov 30 11:36:04  2005


         ** NMOSFET: Benchmarking of B4SOI Id-Vd by Jane Xi 05/09/2003.
         DC transfer characteristic  Wed Nov 30 11:36:04  2005
--------------------------------------------------------------------------------
Index   sweep           vd#branch       
--------------------------------------------------------------------------------
0	0.000000e+00	3.745007e-18	
1	1.000000e-02	-1.687405e-09	
2	2.000000e-02	-2.912219e-09	
3	3.000000e-02	-3.749804e-09	
4	4.000000e-02	-4.298757e-09	
5	5.000000e-02	-4.658442e-09	
6	6.000000e-02	-4.905881e-09	
7	7.000000e-02	-5.089867e-09	
8	8.000000e-02	-5.237977e-09	
9	9.000000e-02	-5.365198e-09	
10	1.000000e-01	-5.479742e-09	
11	1.100000e-01	-5.586253e-09	
12	1.200000e-01	-5.687464e-09	
13	1.300000e-01	-5.785059e-09	
14	1.400000e-01	-5.880117e-09	
15	1.500000e-01	-5.973358e-09	
16	1.600000e-01	-6.065281e-09	
17	1.700000e-01	-6.156244e-09	
18	1.800000e-01	-6.246511e-09	
19	1.900000e-01	-6.336285e-09	
20	2.000000e-01	-6.425723e-09	
21	2.100000e-01	-6.514952e-09	
22	2.200000e-01	-6.604074e-09	
23	2.300000e-01	-6.693178e-09	
24	2.400000e-01	-6.782335e-09	
25	2.500000e-01	-6.871610e-09	
26	2.600000e-01	-6.961058e-09	
27	2.700000e-01	-7.050728e-09	
28	2.800000e-01	-7.140663e-09	
29	2.900000e-01	-7.230904e-09	
30	3.000000e-01	-7.321487e-09	
31	3.100000e-01	-7.412444e-09	
32	3.200000e-01	-7.503807e-09	
33	3.300000e-01	-7.595604e-09	
34	3.400000e-01	-7.687863e-09	
35	3.500000e-01	-7.780607e-09	
36	3.600000e-01	-7.873860e-09	
37	3.700000e-01	-7.967646e-09	
38	3.800000e-01	-8.061985e-09	
39	3.900000e-01	-8.156898e-09	
40	4.000000e-01	-8.252405e-09	
41	4.100000e-01	-8.348524e-09	
42	4.200000e-01	-8.445273e-09	
43	4.300000e-01	-8.542670e-09	
44	4.400000e-01	-8.640732e-09	
45	4.500000e-01	-8.739474e-09	
46	4.600000e-01	-8.838914e-09	
47	4.700000e-01	-8.939066e-09	
48	4.800000e-01	-9.039946e-09	
49	4.900000e-01	-9.141569e-09	
50	5.000000e-01	-9.243948e-09	
51	5.100000e-01	-9.347099e-09	
52	5.200000e-01	-9.451035e-09	
53	5.300000e-01	-9.555770e-09	
54	5.400000e-01	-9.661318e-09	
55	5.500000e-01	-9.767691e-09	
56	5.600000e-01	-9.874903e-09	
57	5.700000e-01	-9.982967e-09	
58	5.800000e-01	-1.009190e-08	
59	5.900000e-01	-1.020170e-08	
60	6.000000e-01	-1.031240e-08	
61	6.100000e-01	-1.042400e-08	
62	6.200000e-01	-1.053651e-08	
63	6.300000e-01	-1.064995e-08	
64	6.400000e-01	-1.076434e-08	
65	6.500000e-01	-1.087967e-08	
66	6.600000e-01	-1.099597e-08	
67	6.700000e-01	-1.111324e-08	
68	6.800000e-01	-1.123150e-08	
69	6.900000e-01	-1.135076e-08	
70	7.000000e-01	-1.147103e-08	
71	7.100000e-01	-1.159233e-08	
72	7.200000e-01	-1.171466e-08	
73	7.300000e-01	-1.183805e-08	
74	7.400000e-01	-1.196249e-08	
75	7.500000e-01	-1.208800e-08	
76	7.600000e-01	-1.221460e-08	
77	7.700000e-01	-1.234229e-08	
78	7.800000e-01	-1.247109e-08	
79	7.900000e-01	-1.260101e-08	
80	8.000000e-01	-1.273206e-08	
81	8.100000e-01	-1.286425e-08	
82	8.200000e-01	-1.299761e-08	
83	8.300000e-01	-1.313212e-08	
84	8.400000e-01	-1.326782e-08	
85	8.500000e-01	-1.340471e-08	
86	8.600000e-01	-1.354281e-08	
87	8.700000e-01	-1.368212e-08	
88	8.800000e-01	-1.382266e-08	
89	8.900000e-01	-1.396444e-08	
90	9.000000e-01	-1.410748e-08	
91	9.100000e-01	-1.425178e-08	
92	9.200000e-01	-1.439736e-08	
93	9.300000e-01	-1.454424e-08	
94	9.400000e-01	-1.469241e-08	
95	9.500000e-01	-1.484191e-08	
96	9.600000e-01	-1.499273e-08	
97	9.700000e-01	-1.514489e-08	
98	9.800000e-01	-1.529841e-08	
99	9.900000e-01	-1.545330e-08	
100	1.000000e+00	-1.560957e-08	
101	1.010000e+00	-1.576724e-08	
102	1.020000e+00	-1.592631e-08	
103	1.030000e+00	-1.608681e-08	
104	1.040000e+00	-1.624874e-08	
105	1.050000e+00	-1.641211e-08	
106	1.060000e+00	-1.657695e-08	
107	1.070000e+00	-1.674327e-08	
108	1.080000e+00	-1.691107e-08	
109	1.090000e+00	-1.708038e-08	
110	1.100000e+00	-1.725121e-08	
111	1.110000e+00	-1.742356e-08	
112	1.120000e+00	-1.759747e-08	
113	1.130000e+00	-1.777293e-08	
114	1.140000e+00	-1.794997e-08	
115	1.150000e+00	-1.812860e-08	
116	1.160000e+00	-1.830884e-08	
117	1.170000e+00	-1.849069e-08	
118	1.180000e+00	-1.867418e-08	
119	1.190000e+00	-1.885931e-08	
120	1.200000e+00	-1.904613e-08	
121	0.000000e+00	1.843013e-17	
122	1.000000e-02	-2.972405e-08	
123	2.000000e-02	-5.160990e-08	
124	3.000000e-02	-6.683136e-08	
125	4.000000e-02	-7.695133e-08	
126	5.000000e-02	-8.361445e-08	
127	6.000000e-02	-8.816499e-08	
128	7.000000e-02	-9.149575e-08	
129	8.000000e-02	-9.412824e-08	
130	9.000000e-02	-9.635135e-08	
131	1.000000e-01	-9.832473e-08	
132	1.100000e-01	-1.001389e-07	
133	1.200000e-01	-1.018470e-07	
134	1.300000e-01	-1.034819e-07	
135	1.400000e-01	-1.050642e-07	
136	1.500000e-01	-1.066079e-07	
137	1.600000e-01	-1.081225e-07	
138	1.700000e-01	-1.096148e-07	
139	1.800000e-01	-1.110898e-07	
140	1.900000e-01	-1.125514e-07	
141	2.000000e-01	-1.140023e-07	
142	2.100000e-01	-1.154451e-07	
143	2.200000e-01	-1.168816e-07	
144	2.300000e-01	-1.183133e-07	
145	2.400000e-01	-1.197416e-07	
146	2.500000e-01	-1.211677e-07	
147	2.600000e-01	-1.225926e-07	
148	2.700000e-01	-1.240170e-07	
149	2.800000e-01	-1.254418e-07	
150	2.900000e-01	-1.268676e-07	
151	3.000000e-01	-1.282952e-07	
152	3.100000e-01	-1.297250e-07	
153	3.200000e-01	-1.311575e-07	
154	3.300000e-01	-1.325933e-07	
155	3.400000e-01	-1.340328e-07	
156	3.500000e-01	-1.354763e-07	
157	3.600000e-01	-1.369243e-07	
158	3.700000e-01	-1.383772e-07	
159	3.800000e-01	-1.398352e-07	
160	3.900000e-01	-1.412987e-07	
161	4.000000e-01	-1.427680e-07	
162	4.100000e-01	-1.442433e-07	
163	4.200000e-01	-1.457250e-07	
164	4.300000e-01	-1.472132e-07	
165	4.400000e-01	-1.487083e-07	
166	4.500000e-01	-1.502105e-07	
167	4.600000e-01	-1.517200e-07	
168	4.700000e-01	-1.532370e-07	
169	4.800000e-01	-1.547618e-07	
170	4.900000e-01	-1.562945e-07	
171	5.000000e-01	-1.578353e-07	
172	5.100000e-01	-1.593844e-07	
173	5.200000e-01	-1.609421e-07	
174	5.300000e-01	-1.625085e-07	
175	5.400000e-01	-1.640837e-07	
176	5.500000e-01	-1.656679e-07	
177	5.600000e-01	-1.672614e-07	
178	5.700000e-01	-1.688642e-07	
179	5.800000e-01	-1.704766e-07	
180	5.900000e-01	-1.720986e-07	
181	6.000000e-01	-1.737304e-07	
182	6.100000e-01	-1.753723e-07	
183	6.200000e-01	-1.770242e-07	
184	6.300000e-01	-1.786864e-07	
185	6.400000e-01	-1.803591e-07	
186	6.500000e-01	-1.820422e-07	
187	6.600000e-01	-1.837361e-07	
188	6.700000e-01	-1.854408e-07	
189	6.800000e-01	-1.871564e-07	
190	6.900000e-01	-1.888831e-07	
191	7.000000e-01	-1.906211e-07	
192	7.100000e-01	-1.923703e-07	
193	7.200000e-01	-1.941311e-07	
194	7.300000e-01	-1.959034e-07	
195	7.400000e-01	-1.976875e-07	
196	7.500000e-01	-1.994834e-07	
197	7.600000e-01	-2.012913e-07	
198	7.700000e-01	-2.031113e-07	
199	7.800000e-01	-2.049435e-07	
200	7.900000e-01	-2.067881e-07	
201	8.000000e-01	-2.086450e-07	
202	8.100000e-01	-2.105146e-07	
203	8.200000e-01	-2.123969e-07	
204	8.300000e-01	-2.142920e-07	
205	8.400000e-01	-2.162000e-07	
206	8.500000e-01	-2.181210e-07	
207	8.600000e-01	-2.200552e-07	
208	8.700000e-01	-2.220027e-07	
209	8.800000e-01	-2.239636e-07	
210	8.900000e-01	-2.259380e-07	
211	9.000000e-01	-2.279261e-07	
212	9.100000e-01	-2.299278e-07	
213	9.200000e-01	-2.319435e-07	
214	9.300000e-01	-2.339731e-07	
215	9.400000e-01	-2.360168e-07	
216	9.500000e-01	-2.380747e-07	
217	9.600000e-01	-2.401469e-07	
218	9.700000e-01	-2.422336e-07	
219	9.800000e-01	-2.443349e-07	
220	9.900000e-01	-2.464508e-07	
221	1.000000e+00	-2.485814e-07	
222	1.010000e+00	-2.507270e-07	
223	1.020000e+00	-2.528876e-07	
224	1.030000e+00	-2.550634e-07	
225	1.040000e+00	-2.572543e-07	
226	1.050000e+00	-2.594607e-07	
227	1.060000e+00	-2.616825e-07	
228	1.070000e+00	-2.639200e-07	
229	1.080000e+00	-2.661731e-07	
230	1.090000e+00	-2.684421e-07	
231	1.100000e+00	-2.707271e-07	
232	1.110000e+00	-2.730281e-07	
233	1.120000e+00	-2.753453e-07	
234	1.130000e+00	-2.776789e-07	
235	1.140000e+00	-2.800289e-07	
236	1.150000e+00	-2.823954e-07	
237	1.160000e+00	-2.847786e-07	
238	1.170000e+00	-2.871787e-07	
239	1.180000e+00	-2.895956e-07	
240	1.190000e+00	-2.920296e-07	
241	1.200000e+00	-2.944824e-07	
242	0.000000e+00	7.865259e-17	
243	1.000000e-02	-2.689272e-07	
244	2.000000e-02	-4.854093e-07	
245	3.000000e-02	-6.536221e-07	
246	4.000000e-02	-7.794744e-07	
247	5.000000e-02	-8.706527e-07	
248	6.000000e-02	-9.357876e-07	
249	7.000000e-02	-9.829589e-07	
250	8.000000e-02	-1.018507e-06	
251	9.000000e-02	-1.046769e-06	
252	1.000000e-01	-1.070468e-06	
253	1.100000e-01	-1.091255e-06	
254	1.200000e-01	-1.110121e-06	
255	1.300000e-01	-1.127676e-06	
256	1.400000e-01	-1.144301e-06	
257	1.500000e-01	-1.160245e-06	
258	1.600000e-01	-1.175672e-06	
259	1.700000e-01	-1.190698e-06	
260	1.800000e-01	-1.205404e-06	
261	1.900000e-01	-1.219850e-06	
262	2.000000e-01	-1.234083e-06	
263	2.100000e-01	-1.248136e-06	
264	2.200000e-01	-1.262038e-06	
265	2.300000e-01	-1.275811e-06	
266	2.400000e-01	-1.289473e-06	
267	2.500000e-01	-1.303041e-06	
268	2.600000e-01	-1.316527e-06	
269	2.700000e-01	-1.329942e-06	
270	2.800000e-01	-1.343297e-06	
271	2.900000e-01	-1.356600e-06	
272	3.000000e-01	-1.369859e-06	
273	3.100000e-01	-1.383081e-06	
274	3.200000e-01	-1.396272e-06	
275	3.300000e-01	-1.409437e-06	
276	3.400000e-01	-1.422583e-06	
277	3.500000e-01	-1.435713e-06	
278	3.600000e-01	-1.448833e-06	
279	3.700000e-01	-1.461945e-06	
280	3.800000e-01	-1.475054e-06	
281	3.900000e-01	-1.488164e-06	
282	4.000000e-01	-1.501277e-06	
283	4.100000e-01	-1.514396e-06	
284	4.200000e-01	-1.527526e-06	
285	4.300000e-01	-1.540667e-06	
286	4.400000e-01	-1.553823e-06	
287	4.500000e-01	-1.566996e-06	
288	4.600000e-01	-1.580188e-06	
289	4.700000e-01	-1.593402e-06	
290	4.800000e-01	-1.606639e-06	
291	4.900000e-01	-1.619902e-06	
292	5.000000e-01	-1.633192e-06	
293	5.100000e-01	-1.646511e-06	
294	5.200000e-01	-1.659861e-06	
295	5.300000e-01	-1.673242e-06	
296	5.400000e-01	-1.686658e-06	
297	5.500000e-01	-1.700109e-06	
298	5.600000e-01	-1.713596e-06	
299	5.700000e-01	-1.727122e-06	
300	5.800000e-01	-1.740686e-06	
301	5.900000e-01	-1.754253e-06	
302	6.000000e-01	-1.767880e-06	
303	6.100000e-01	-1.781626e-06	
304	6.200000e-01	-1.795379e-06	
305	6.300000e-01	-1.809098e-06	
306	6.400000e-01	-1.822902e-06	
307	6.500000e-01	-1.836833e-06	
308	6.600000e-01	-1.850772e-06	
309	6.700000e-01	-1.864678e-06	
310	6.800000e-01	-1.878675e-06	
311	6.900000e-01	-1.892806e-06	
312	7.000000e-01	-1.906947e-06	
313	7.100000e-01	-1.921055e-06	
314	7.200000e-01	-1.935259e-06	
315	7.300000e-01	-1.949603e-06	
316	7.400000e-01	-1.963960e-06	
317	7.500000e-01	-1.978282e-06	
318	7.600000e-01	-1.992705e-06	
319	7.700000e-01	-2.007276e-06	
320	7.800000e-01	-2.021859e-06	
321	7.900000e-01	-2.036408e-06	
322	8.000000e-01	-2.051061e-06	
323	8.100000e-01	-2.065869e-06	
324	8.200000e-01	-2.080690e-06	
325	8.300000e-01	-2.095475e-06	
326	8.400000e-01	-2.110369e-06	
327	8.500000e-01	-2.125424e-06	
328	8.600000e-01	-2.140493e-06	
329	8.700000e-01	-2.155524e-06	
330	8.800000e-01	-2.170668e-06	
331	8.900000e-01	-2.185980e-06	
332	9.000000e-01	-2.201305e-06	
333	9.100000e-01	-2.216591e-06	
334	9.200000e-01	-2.231994e-06	
335	9.300000e-01	-2.247570e-06	
336	9.400000e-01	-2.263161e-06	
337	9.500000e-01	-2.278709e-06	
338	9.600000e-01	-2.294379e-06	
339	9.700000e-01	-2.310229e-06	
340	9.800000e-01	-2.326092e-06	
341	9.900000e-01	-2.341912e-06	
342	1.000000e+00	-2.357856e-06	
343	1.010000e+00	-2.373986e-06	
344	1.020000e+00	-2.390130e-06	
345	1.030000e+00	-2.406227e-06	
346	1.040000e+00	-2.422454e-06	
347	1.050000e+00	-2.438871e-06	
348	1.060000e+00	-2.455303e-06	
349	1.070000e+00	-2.471685e-06	
350	1.080000e+00	-2.488200e-06	
351	1.090000e+00	-2.504913e-06	
352	1.100000e+00	-2.521638e-06	
353	1.110000e+00	-2.538312e-06	
354	1.120000e+00	-2.555123e-06	
355	1.130000e+00	-2.572137e-06	
356	1.140000e+00	-2.589163e-06	
357	1.150000e+00	-2.606135e-06	
358	1.160000e+00	-2.623248e-06	
359	1.170000e+00	-2.640570e-06	
360	1.180000e+00	-2.657904e-06	
361	1.190000e+00	-2.675181e-06	
362	1.200000e+00	-2.692670e-06	
363	0.000000e+00	2.215570e-16	
364	1.000000e-02	-1.068539e-06	
365	2.000000e-02	-2.020500e-06	
366	3.000000e-02	-2.859491e-06	
367	4.000000e-02	-3.589687e-06	
368	5.000000e-02	-4.216115e-06	
369	6.000000e-02	-4.745033e-06	
370	7.000000e-02	-5.184318e-06	
371	8.000000e-02	-5.543721e-06	
372	9.000000e-02	-5.834736e-06	
373	1.000000e-01	-6.069874e-06	
374	1.100000e-01	-6.261476e-06	
375	1.200000e-01	-6.420513e-06	
376	1.300000e-01	-6.555870e-06	
377	1.400000e-01	-6.674224e-06	
378	1.500000e-01	-6.780353e-06	
379	1.600000e-01	-6.877379e-06	
380	1.700000e-01	-6.967880e-06	
381	1.800000e-01	-7.053729e-06	
382	1.900000e-01	-7.135464e-06	
383	2.000000e-01	-7.213656e-06	
384	2.100000e-01	-7.289468e-06	
385	2.200000e-01	-7.363541e-06	
386	2.300000e-01	-7.435582e-06	
387	2.400000e-01	-7.505615e-06	
388	2.500000e-01	-7.574470e-06	
389	2.600000e-01	-7.642532e-06	
390	2.700000e-01	-7.709283e-06	
391	2.800000e-01	-7.774598e-06	
392	2.900000e-01	-7.839235e-06	
393	3.000000e-01	-7.903507e-06	
394	3.100000e-01	-7.966806e-06	
395	3.200000e-01	-8.028949e-06	
396	3.300000e-01	-8.090685e-06	
397	3.400000e-01	-8.152303e-06	
398	3.500000e-01	-8.213141e-06	
399	3.600000e-01	-8.272989e-06	
400	3.700000e-01	-8.332601e-06	
401	3.800000e-01	-8.392261e-06	
402	3.900000e-01	-8.451267e-06	
403	4.000000e-01	-8.509391e-06	
404	4.100000e-01	-8.567401e-06	
405	4.200000e-01	-8.625578e-06	
406	4.300000e-01	-8.683191e-06	
407	4.400000e-01	-8.739997e-06	
408	4.500000e-01	-8.796779e-06	
409	4.600000e-01	-8.853821e-06	
410	4.700000e-01	-8.910364e-06	
411	4.800000e-01	-8.966154e-06	
412	4.900000e-01	-9.021992e-06	
413	5.000000e-01	-9.078163e-06	
414	5.100000e-01	-9.133885e-06	
415	5.200000e-01	-9.188893e-06	
416	5.300000e-01	-9.244007e-06	
417	5.400000e-01	-9.299514e-06	
418	5.500000e-01	-9.354610e-06	
419	5.600000e-01	-9.409023e-06	
420	5.700000e-01	-9.463588e-06	
421	5.800000e-01	-9.518596e-06	
422	5.900000e-01	-9.573224e-06	
423	6.000000e-01	-9.627190e-06	
424	6.100000e-01	-9.681347e-06	
425	6.200000e-01	-9.735992e-06	
426	6.300000e-01	-9.790279e-06	
427	6.400000e-01	-9.843921e-06	
428	6.500000e-01	-9.897787e-06	
429	6.600000e-01	-9.952178e-06	
430	6.700000e-01	-1.000623e-05	
431	6.800000e-01	-1.005965e-05	
432	6.900000e-01	-1.011332e-05	
433	7.000000e-01	-1.016755e-05	
434	7.100000e-01	-1.022145e-05	
435	7.200000e-01	-1.027473e-05	
436	7.300000e-01	-1.032829e-05	
437	7.400000e-01	-1.038244e-05	
438	7.500000e-01	-1.043627e-05	
439	7.600000e-01	-1.048948e-05	
440	7.700000e-01	-1.054299e-05	
441	7.800000e-01	-1.059712e-05	
442	7.900000e-01	-1.065094e-05	
443	8.000000e-01	-1.070415e-05	
444	8.100000e-01	-1.075767e-05	
445	8.200000e-01	-1.081183e-05	
446	8.300000e-01	-1.086570e-05	
447	8.400000e-01	-1.091895e-05	
448	8.500000e-01	-1.097253e-05	
449	8.600000e-01	-1.102678e-05	
450	8.700000e-01	-1.108073e-05	
451	8.800000e-01	-1.113407e-05	
452	8.900000e-01	-1.118776e-05	
453	9.000000e-01	-1.124213e-05	
454	9.100000e-01	-1.129622e-05	
455	9.200000e-01	-1.134968e-05	
456	9.300000e-01	-1.140351e-05	
457	9.400000e-01	-1.145805e-05	
458	9.500000e-01	-1.151229e-05	
459	9.600000e-01	-1.156592e-05	
460	9.700000e-01	-1.161993e-05	
461	9.800000e-01	-1.167465e-05	
462	9.900000e-01	-1.172909e-05	
463	1.000000e+00	-1.178291e-05	
464	1.010000e+00	-1.183712e-05	
465	1.020000e+00	-1.189206e-05	
466	1.030000e+00	-1.194673e-05	
467	1.040000e+00	-1.200076e-05	
468	1.050000e+00	-1.205520e-05	
469	1.060000e+00	-1.211039e-05	
470	1.070000e+00	-1.216529e-05	
471	1.080000e+00	-1.221957e-05	
472	1.090000e+00	-1.227425e-05	
473	1.100000e+00	-1.232971e-05	
474	1.110000e+00	-1.238488e-05	
475	1.120000e+00	-1.243942e-05	
476	1.130000e+00	-1.249437e-05	
477	1.140000e+00	-1.255011e-05	
478	1.150000e+00	-1.260557e-05	
479	1.160000e+00	-1.266038e-05	
480	1.170000e+00	-1.271563e-05	
481	1.180000e+00	-1.277167e-05	
482	1.190000e+00	-1.282743e-05	
483	1.200000e+00	-1.288272e-05	
484	0.000000e+00	5.380166e-16	
485	1.000000e-02	-2.269477e-06	
486	2.000000e-02	-4.383087e-06	
487	3.000000e-02	-6.344275e-06	
488	4.000000e-02	-8.156531e-06	
489	5.000000e-02	-9.823435e-06	
490	6.000000e-02	-1.134873e-05	
491	7.000000e-02	-1.273639e-05	
492	8.000000e-02	-1.399077e-05	
493	9.000000e-02	-1.511669e-05	
494	1.000000e-01	-1.611974e-05	
495	1.100000e-01	-1.700664e-05	
496	1.200000e-01	-1.778485e-05	
497	1.300000e-01	-1.846307e-05	
498	1.400000e-01	-1.905198e-05	
499	1.500000e-01	-1.956317e-05	
500	1.600000e-01	-2.000773e-05	
501	1.700000e-01	-2.039669e-05	
502	1.800000e-01	-2.074139e-05	
503	1.900000e-01	-2.105127e-05	
504	2.000000e-01	-2.133280e-05	
505	2.100000e-01	-2.159142e-05	
506	2.200000e-01	-2.183272e-05	
507	2.300000e-01	-2.206055e-05	
508	2.400000e-01	-2.227637e-05	
509	2.500000e-01	-2.248168e-05	
510	2.600000e-01	-2.267919e-05	
511	2.700000e-01	-2.287051e-05	
512	2.800000e-01	-2.305528e-05	
513	2.900000e-01	-2.323378e-05	
514	3.000000e-01	-2.340788e-05	
515	3.100000e-01	-2.357852e-05	
516	3.200000e-01	-2.374479e-05	
517	3.300000e-01	-2.390653e-05	
518	3.400000e-01	-2.406541e-05	
519	3.500000e-01	-2.422214e-05	
520	3.600000e-01	-2.437557e-05	
521	3.700000e-01	-2.452541e-05	
522	3.800000e-01	-2.467323e-05	
523	3.900000e-01	-2.481968e-05	
524	4.000000e-01	-2.496348e-05	
525	4.100000e-01	-2.510424e-05	
526	4.200000e-01	-2.524355e-05	
527	4.300000e-01	-2.538201e-05	
528	4.400000e-01	-2.551825e-05	
529	4.500000e-01	-2.565183e-05	
530	4.600000e-01	-2.578435e-05	
531	4.700000e-01	-2.591640e-05	
532	4.800000e-01	-2.604654e-05	
533	4.900000e-01	-2.617431e-05	
534	5.000000e-01	-2.630130e-05	
535	5.100000e-01	-2.642812e-05	
536	5.200000e-01	-2.655326e-05	
537	5.300000e-01	-2.667622e-05	
538	5.400000e-01	-2.679865e-05	
539	5.500000e-01	-2.692113e-05	
540	5.600000e-01	-2.704211e-05	
541	5.700000e-01	-2.716108e-05	
542	5.800000e-01	-2.727970e-05	
543	5.900000e-01	-2.739854e-05	
544	6.000000e-01	-2.751603e-05	
545	6.100000e-01	-2.763164e-05	
546	6.200000e-01	-2.774704e-05	
547	6.300000e-01	-2.786282e-05	
548	6.400000e-01	-2.797736e-05	
549	6.500000e-01	-2.809012e-05	
550	6.600000e-01	-2.820279e-05	
551	6.700000e-01	-2.831597e-05	
552	6.800000e-01	-2.842800e-05	
553	6.900000e-01	-2.853832e-05	
554	7.000000e-01	-2.864866e-05	
555	7.100000e-01	-2.875962e-05	
556	7.200000e-01	-2.886951e-05	
557	7.300000e-01	-2.897775e-05	
558	7.400000e-01	-2.908610e-05	
559	7.500000e-01	-2.919516e-05	
560	7.600000e-01	-2.930320e-05	
561	7.700000e-01	-2.940965e-05	
562	7.800000e-01	-2.951628e-05	
563	7.900000e-01	-2.962370e-05	
564	8.000000e-01	-2.973016e-05	
565	8.100000e-01	-2.983507e-05	
566	8.200000e-01	-2.994022e-05	
567	8.300000e-01	-3.004623e-05	
568	8.400000e-01	-3.015132e-05	
569	8.500000e-01	-3.025490e-05	
570	8.600000e-01	-3.035877e-05	
571	8.700000e-01	-3.046356e-05	
572	8.800000e-01	-3.056747e-05	
573	8.900000e-01	-3.066989e-05	
574	9.000000e-01	-3.077266e-05	
575	9.100000e-01	-3.087640e-05	
576	9.200000e-01	-3.097929e-05	
577	9.300000e-01	-3.108070e-05	
578	9.400000e-01	-3.118251e-05	
579	9.500000e-01	-3.128535e-05	
580	9.600000e-01	-3.138735e-05	
581	9.700000e-01	-3.148790e-05	
582	9.800000e-01	-3.158888e-05	
583	9.900000e-01	-3.169093e-05	
584	1.000000e+00	-3.179218e-05	
585	1.010000e+00	-3.189198e-05	
586	1.020000e+00	-3.199224e-05	
587	1.030000e+00	-3.209362e-05	
588	1.040000e+00	-3.219421e-05	
589	1.050000e+00	-3.229336e-05	
590	1.060000e+00	-3.239301e-05	
591	1.070000e+00	-3.249380e-05	
592	1.080000e+00	-3.259383e-05	
593	1.090000e+00	-3.269242e-05	
594	1.100000e+00	-3.279154e-05	
595	1.110000e+00	-3.289184e-05	
596	1.120000e+00	-3.299139e-05	
597	1.130000e+00	-3.308950e-05	
598	1.140000e+00	-3.318817e-05	
599	1.150000e+00	-3.328806e-05	
600	1.160000e+00	-3.338719e-05	
601	1.170000e+00	-3.348490e-05	
602	1.180000e+00	-3.358319e-05	
603	1.190000e+00	-3.368273e-05	
604	1.200000e+00	-3.378085e-05	
605	0.000000e+00	1.193720e-15	
606	1.000000e-02	-3.511529e-06	
607	2.000000e-02	-6.844777e-06	
608	3.000000e-02	-1.000327e-05	
609	4.000000e-02	-1.299050e-05	
610	5.000000e-02	-1.580991e-05	
611	6.000000e-02	-1.846494e-05	
612	7.000000e-02	-2.095908e-05	
613	8.000000e-02	-2.329567e-05	
614	9.000000e-02	-2.547823e-05	
615	1.000000e-01	-2.751045e-05	
616	1.100000e-01	-2.939603e-05	
617	1.200000e-01	-3.113893e-05	
618	1.300000e-01	-3.274360e-05	
619	1.400000e-01	-3.421458e-05	
620	1.500000e-01	-3.555690e-05	
621	1.600000e-01	-3.677680e-05	
622	1.700000e-01	-3.788132e-05	
623	1.800000e-01	-3.887761e-05	
624	1.900000e-01	-3.977386e-05	
625	2.000000e-01	-4.058021e-05	
626	2.100000e-01	-4.130707e-05	
627	2.200000e-01	-4.196365e-05	
628	2.300000e-01	-4.255933e-05	
629	2.400000e-01	-4.310437e-05	
630	2.500000e-01	-4.360744e-05	
631	2.600000e-01	-4.407428e-05	
632	2.700000e-01	-4.451020e-05	
633	2.800000e-01	-4.492131e-05	
634	2.900000e-01	-4.531197e-05	
635	3.000000e-01	-4.568381e-05	
636	3.100000e-01	-4.603872e-05	
637	3.200000e-01	-4.638020e-05	
638	3.300000e-01	-4.671040e-05	
639	3.400000e-01	-4.702907e-05	
640	3.500000e-01	-4.733670e-05	
641	3.600000e-01	-4.763584e-05	
642	3.700000e-01	-4.792783e-05	
643	3.800000e-01	-4.821166e-05	
644	3.900000e-01	-4.848732e-05	
645	4.000000e-01	-4.875701e-05	
646	4.100000e-01	-4.902176e-05	
647	4.200000e-01	-4.928024e-05	
648	4.300000e-01	-4.953218e-05	
649	4.400000e-01	-4.977967e-05	
650	4.500000e-01	-5.002362e-05	
651	4.600000e-01	-5.026249e-05	
652	4.700000e-01	-5.049589e-05	
653	4.800000e-01	-5.072587e-05	
654	4.900000e-01	-5.095328e-05	
655	5.000000e-01	-5.117644e-05	
656	5.100000e-01	-5.139487e-05	
657	5.200000e-01	-5.161065e-05	
658	5.300000e-01	-5.182456e-05	
659	5.400000e-01	-5.203484e-05	
660	5.500000e-01	-5.224096e-05	
661	5.600000e-01	-5.244498e-05	
662	5.700000e-01	-5.264770e-05	
663	5.800000e-01	-5.284726e-05	
664	5.900000e-01	-5.304307e-05	
665	6.000000e-01	-5.323724e-05	
666	6.100000e-01	-5.343054e-05	
667	6.200000e-01	-5.362105e-05	
668	6.300000e-01	-5.380815e-05	
669	6.400000e-01	-5.399397e-05	
670	6.500000e-01	-5.417927e-05	
671	6.600000e-01	-5.436207e-05	
672	6.700000e-01	-5.454174e-05	
673	6.800000e-01	-5.472041e-05	
674	6.900000e-01	-5.489885e-05	
675	7.000000e-01	-5.507504e-05	
676	7.100000e-01	-5.524830e-05	
677	7.200000e-01	-5.542081e-05	
678	7.300000e-01	-5.559333e-05	
679	7.400000e-01	-5.576380e-05	
680	7.500000e-01	-5.593151e-05	
681	7.600000e-01	-5.609868e-05	
682	7.700000e-01	-5.626606e-05	
683	7.800000e-01	-5.643154e-05	
684	7.900000e-01	-5.659443e-05	
685	8.000000e-01	-5.675693e-05	
686	8.100000e-01	-5.691981e-05	
687	8.200000e-01	-5.708094e-05	
688	8.300000e-01	-5.723959e-05	
689	8.400000e-01	-5.739799e-05	
690	8.500000e-01	-5.755694e-05	
691	8.600000e-01	-5.771423e-05	
692	8.700000e-01	-5.786915e-05	
693	8.800000e-01	-5.802395e-05	
694	8.900000e-01	-5.817942e-05	
695	9.000000e-01	-5.833333e-05	
696	9.100000e-01	-5.848495e-05	
697	9.200000e-01	-5.863656e-05	
698	9.300000e-01	-5.878895e-05	
699	9.400000e-01	-5.893987e-05	
700	9.500000e-01	-5.908856e-05	
701	9.600000e-01	-5.923733e-05	
702	9.700000e-01	-5.938699e-05	
703	9.800000e-01	-5.953525e-05	
704	9.900000e-01	-5.968132e-05	
705	1.000000e+00	-5.982758e-05	
706	1.010000e+00	-5.997480e-05	
707	1.020000e+00	-6.012068e-05	
708	1.030000e+00	-6.026443e-05	
709	1.040000e+00	-6.040843e-05	
710	1.050000e+00	-6.055348e-05	
711	1.060000e+00	-6.069723e-05	
712	1.070000e+00	-6.083889e-05	
713	1.080000e+00	-6.098087e-05	
714	1.090000e+00	-6.112397e-05	
715	1.100000e+00	-6.126582e-05	
716	1.110000e+00	-6.140562e-05	
717	1.120000e+00	-6.154579e-05	
718	1.130000e+00	-6.168714e-05	
719	1.140000e+00	-6.182728e-05	
720	1.150000e+00	-6.196540e-05	
721	1.160000e+00	-6.210394e-05	
722	1.170000e+00	-6.224373e-05	
723	1.180000e+00	-6.238234e-05	
724	1.190000e+00	-6.251894e-05	
725	1.200000e+00	-6.265684e-05	
726	0.000000e+00	2.481328e-15	
727	1.000000e-02	-4.671869e-06	
728	2.000000e-02	-9.151761e-06	
729	3.000000e-02	-1.344323e-05	
730	4.000000e-02	-1.754976e-05	
731	5.000000e-02	-2.147480e-05	
732	6.000000e-02	-2.522179e-05	
733	7.000000e-02	-2.879395e-05	
734	8.000000e-02	-3.219453e-05	
735	9.000000e-02	-3.542692e-05	
736	1.000000e-01	-3.849439e-05	
737	1.100000e-01	-4.140005e-05	
738	1.200000e-01	-4.414721e-05	
739	1.300000e-01	-4.673918e-05	
740	1.400000e-01	-4.917924e-05	
741	1.500000e-01	-5.147091e-05	
742	1.600000e-01	-5.361792e-05	
743	1.700000e-01	-5.562391e-05	
744	1.800000e-01	-5.749274e-05	
745	1.900000e-01	-5.922918e-05	
746	2.000000e-01	-6.083836e-05	
747	2.100000e-01	-6.232519e-05	
748	2.200000e-01	-6.369538e-05	
749	2.300000e-01	-6.495629e-05	
750	2.400000e-01	-6.611572e-05	
751	2.500000e-01	-6.718086e-05	
752	2.600000e-01	-6.815973e-05	
753	2.700000e-01	-6.906209e-05	
754	2.800000e-01	-6.989708e-05	
755	2.900000e-01	-7.067182e-05	
756	3.000000e-01	-7.139343e-05	
757	3.100000e-01	-7.207013e-05	
758	3.200000e-01	-7.270846e-05	
759	3.300000e-01	-7.331214e-05	
760	3.400000e-01	-7.388491e-05	
761	3.500000e-01	-7.443192e-05	
762	3.600000e-01	-7.495678e-05	
763	3.700000e-01	-7.546039e-05	
764	3.800000e-01	-7.594423e-05	
765	3.900000e-01	-7.641176e-05	
766	4.000000e-01	-7.686508e-05	
767	4.100000e-01	-7.730374e-05	
768	4.200000e-01	-7.772822e-05	
769	4.300000e-01	-7.814126e-05	
770	4.400000e-01	-7.854433e-05	
771	4.500000e-01	-7.893638e-05	
772	4.600000e-01	-7.931738e-05	
773	4.700000e-01	-7.968984e-05	
774	4.800000e-01	-8.005494e-05	
775	4.900000e-01	-8.041126e-05	
776	5.000000e-01	-8.075857e-05	
777	5.100000e-01	-8.109924e-05	
778	5.200000e-01	-8.143432e-05	
779	5.300000e-01	-8.176218e-05	
780	5.400000e-01	-8.208244e-05	
781	5.500000e-01	-8.239743e-05	
782	5.600000e-01	-8.270811e-05	
783	5.700000e-01	-8.301272e-05	
784	5.800000e-01	-8.331076e-05	
785	5.900000e-01	-8.360456e-05	
786	6.000000e-01	-8.389504e-05	
787	6.100000e-01	-8.418030e-05	
788	6.200000e-01	-8.445980e-05	
789	6.300000e-01	-8.473585e-05	
790	6.400000e-01	-8.500935e-05	
791	6.500000e-01	-8.527831e-05	
792	6.600000e-01	-8.554213e-05	
793	6.700000e-01	-8.580315e-05	
794	6.800000e-01	-8.606222e-05	
795	6.900000e-01	-8.631730e-05	
796	7.000000e-01	-8.656774e-05	
797	7.100000e-01	-8.681588e-05	
798	7.200000e-01	-8.706259e-05	
799	7.300000e-01	-8.730573e-05	
800	7.400000e-01	-8.754464e-05	
801	7.500000e-01	-8.778167e-05	
802	7.600000e-01	-8.801769e-05	
803	7.700000e-01	-8.825051e-05	
804	7.800000e-01	-8.847941e-05	
805	7.900000e-01	-8.870680e-05	
806	8.000000e-01	-8.893351e-05	
807	8.100000e-01	-8.915732e-05	
808	8.200000e-01	-8.937749e-05	
809	8.300000e-01	-8.959643e-05	
810	8.400000e-01	-8.981500e-05	
811	8.500000e-01	-9.003092e-05	
812	8.600000e-01	-9.024341e-05	
813	8.700000e-01	-9.045493e-05	
814	8.800000e-01	-9.066633e-05	
815	8.900000e-01	-9.087528e-05	
816	9.000000e-01	-9.108099e-05	
817	9.100000e-01	-9.128595e-05	
818	9.200000e-01	-9.149101e-05	
819	9.300000e-01	-9.169379e-05	
820	9.400000e-01	-9.189349e-05	
821	9.500000e-01	-9.209263e-05	
822	9.600000e-01	-9.229205e-05	
823	9.700000e-01	-9.248933e-05	
824	9.800000e-01	-9.268368e-05	
825	9.900000e-01	-9.287762e-05	
826	1.000000e+00	-9.307201e-05	
827	1.010000e+00	-9.326439e-05	
828	1.020000e+00	-9.345395e-05	
829	1.030000e+00	-9.364324e-05	
830	1.040000e+00	-9.383312e-05	
831	1.050000e+00	-9.402111e-05	
832	1.060000e+00	-9.420637e-05	
833	1.070000e+00	-9.439148e-05	
834	1.080000e+00	-9.457731e-05	
835	1.090000e+00	-9.476135e-05	
836	1.100000e+00	-9.494273e-05	
837	1.110000e+00	-9.512408e-05	
838	1.120000e+00	-9.530627e-05	
839	1.130000e+00	-9.548674e-05	
840	1.140000e+00	-9.566463e-05	
841	1.150000e+00	-9.584257e-05	
842	1.160000e+00	-9.602147e-05	
843	1.170000e+00	-9.619872e-05	
844	1.180000e+00	-9.637345e-05	
845	1.190000e+00	-9.654831e-05	
846	1.200000e+00	-9.672379e-05	
847	0.000000e+00	4.920616e-15	
848	1.000000e-02	-5.727465e-06	
849	2.000000e-02	-1.125460e-05	
850	3.000000e-02	-1.658489e-05	
851	4.000000e-02	-2.172179e-05	
852	5.000000e-02	-2.666866e-05	
853	6.000000e-02	-3.142893e-05	
854	7.000000e-02	-3.600569e-05	
855	8.000000e-02	-4.040209e-05	
856	9.000000e-02	-4.462147e-05	
857	1.000000e-01	-4.866698e-05	
858	1.100000e-01	-5.254152e-05	
859	1.200000e-01	-5.624813e-05	
860	1.300000e-01	-5.978995e-05	
861	1.400000e-01	-6.316994e-05	
862	1.500000e-01	-6.639104e-05	
863	1.600000e-01	-6.945637e-05	
864	1.700000e-01	-7.236890e-05	
865	1.800000e-01	-7.513153e-05	
866	1.900000e-01	-7.774765e-05	
867	2.000000e-01	-8.022073e-05	
868	2.100000e-01	-8.255382e-05	
869	2.200000e-01	-8.475022e-05	
870	2.300000e-01	-8.681433e-05	
871	2.400000e-01	-8.875069e-05	
872	2.500000e-01	-9.056311e-05	
873	2.600000e-01	-9.225607e-05	
874	2.700000e-01	-9.383603e-05	
875	2.800000e-01	-9.530956e-05	
876	2.900000e-01	-9.668198e-05	
877	3.000000e-01	-9.795968e-05	
878	3.100000e-01	-9.915141e-05	
879	3.200000e-01	-1.002654e-04	
880	3.300000e-01	-1.013075e-04	
881	3.400000e-01	-1.022843e-04	
882	3.500000e-01	-1.032044e-04	
883	3.600000e-01	-1.040749e-04	
884	3.700000e-01	-1.048994e-04	
885	3.800000e-01	-1.056821e-04	
886	3.900000e-01	-1.064294e-04	
887	4.000000e-01	-1.071459e-04	
888	4.100000e-01	-1.078326e-04	
889	4.200000e-01	-1.084912e-04	
890	4.300000e-01	-1.091266e-04	
891	4.400000e-01	-1.097416e-04	
892	4.500000e-01	-1.103355e-04	
893	4.600000e-01	-1.109090e-04	
894	4.700000e-01	-1.114660e-04	
895	4.800000e-01	-1.120084e-04	
896	4.900000e-01	-1.125349e-04	
897	5.000000e-01	-1.130453e-04	
898	5.100000e-01	-1.135433e-04	
899	5.200000e-01	-1.140305e-04	
900	5.300000e-01	-1.145050e-04	
901	5.400000e-01	-1.149663e-04	
902	5.500000e-01	-1.154180e-04	
903	5.600000e-01	-1.158614e-04	
904	5.700000e-01	-1.162943e-04	
905	5.800000e-01	-1.167161e-04	
906	5.900000e-01	-1.171302e-04	
907	6.000000e-01	-1.175379e-04	
908	6.100000e-01	-1.179368e-04	
909	6.200000e-01	-1.183261e-04	
910	6.300000e-01	-1.187091e-04	
911	6.400000e-01	-1.190872e-04	
912	6.500000e-01	-1.194577e-04	
913	6.600000e-01	-1.198198e-04	
914	6.700000e-01	-1.201769e-04	
915	6.800000e-01	-1.205301e-04	
916	6.900000e-01	-1.208766e-04	
917	7.000000e-01	-1.212157e-04	
918	7.100000e-01	-1.215507e-04	
919	7.200000e-01	-1.218827e-04	
920	7.300000e-01	-1.222088e-04	
921	7.400000e-01	-1.225282e-04	
922	7.500000e-01	-1.228442e-04	
923	7.600000e-01	-1.231581e-04	
924	7.700000e-01	-1.234667e-04	
925	7.800000e-01	-1.237691e-04	
926	7.900000e-01	-1.240687e-04	
927	8.000000e-01	-1.243668e-04	
928	8.100000e-01	-1.246602e-04	
929	8.200000e-01	-1.249479e-04	
930	8.300000e-01	-1.252333e-04	
931	8.400000e-01	-1.255176e-04	
932	8.500000e-01	-1.257977e-04	
933	8.600000e-01	-1.260725e-04	
934	8.700000e-01	-1.263454e-04	
935	8.800000e-01	-1.266178e-04	
936	8.900000e-01	-1.268862e-04	
937	9.000000e-01	-1.271496e-04	
938	9.100000e-01	-1.274116e-04	
939	9.200000e-01	-1.276733e-04	
940	9.300000e-01	-1.279314e-04	
941	9.400000e-01	-1.281848e-04	
942	9.500000e-01	-1.284370e-04	
943	9.600000e-01	-1.286893e-04	
944	9.700000e-01	-1.289383e-04	
945	9.800000e-01	-1.291827e-04	
946	9.900000e-01	-1.294263e-04	
947	1.000000e+00	-1.296702e-04	
948	1.010000e+00	-1.299111e-04	
949	1.020000e+00	-1.301476e-04	
950	1.030000e+00	-1.303834e-04	
951	1.040000e+00	-1.306199e-04	
952	1.050000e+00	-1.308534e-04	
953	1.060000e+00	-1.310827e-04	
954	1.070000e+00	-1.313117e-04	
955	1.080000e+00	-1.315414e-04	
956	1.090000e+00	-1.317683e-04	
957	1.100000e+00	-1.319913e-04	
958	1.110000e+00	-1.322140e-04	
959	1.120000e+00	-1.324377e-04	
960	1.130000e+00	-1.326587e-04	
961	1.140000e+00	-1.328759e-04	
962	1.150000e+00	-1.330929e-04	
963	1.160000e+00	-1.333111e-04	
964	1.170000e+00	-1.335268e-04	
965	1.180000e+00	-1.337387e-04	
966	1.190000e+00	-1.339507e-04	
967	1.200000e+00	-1.341633e-04	
968	0.000000e+00	9.422639e-15	
969	1.000000e-02	-6.675615e-06	
970	2.000000e-02	-1.314632e-05	
971	3.000000e-02	-1.941548e-05	
972	4.000000e-02	-2.548644e-05	
973	5.000000e-02	-3.136252e-05	
974	6.000000e-02	-3.704684e-05	
975	7.000000e-02	-4.254258e-05	
976	8.000000e-02	-4.785276e-05	
977	9.000000e-02	-5.298055e-05	
978	1.000000e-01	-5.792906e-05	
979	1.100000e-01	-6.270101e-05	
980	1.200000e-01	-6.729932e-05	
981	1.300000e-01	-7.172700e-05	
982	1.400000e-01	-7.598688e-05	
983	1.500000e-01	-8.008167e-05	
984	1.600000e-01	-8.401420e-05	
985	1.700000e-01	-8.778725e-05	
986	1.800000e-01	-9.140345e-05	
987	1.900000e-01	-9.486565e-05	
988	2.000000e-01	-9.817676e-05	
989	2.100000e-01	-1.013393e-04	
990	2.200000e-01	-1.043559e-04	
991	2.300000e-01	-1.072298e-04	
992	2.400000e-01	-1.099643e-04	
993	2.500000e-01	-1.125618e-04	
994	2.600000e-01	-1.150252e-04	
995	2.700000e-01	-1.173587e-04	
996	2.800000e-01	-1.195663e-04	
997	2.900000e-01	-1.216509e-04	
998	3.000000e-01	-1.236163e-04	
999	3.100000e-01	-1.254683e-04	
1000	3.200000e-01	-1.272125e-04	
1001	3.300000e-01	-1.288530e-04	
1002	3.400000e-01	-1.303947e-04	
1003	3.500000e-01	-1.318457e-04	
1004	3.600000e-01	-1.332130e-04	
1005	3.700000e-01	-1.345014e-04	
1006	3.800000e-01	-1.357164e-04	
1007	3.900000e-01	-1.368666e-04	
1008	4.000000e-01	-1.379589e-04	
1009	4.100000e-01	-1.389964e-04	
1010	4.200000e-01	-1.399834e-04	
1011	4.300000e-01	-1.409269e-04	
1012	4.400000e-01	-1.418320e-04	
1013	4.500000e-01	-1.426995e-04	
1014	4.600000e-01	-1.435317e-04	
1015	4.700000e-01	-1.443341e-04	
1016	4.800000e-01	-1.451100e-04	
1017	4.900000e-01	-1.458588e-04	
1018	5.000000e-01	-1.465813e-04	
1019	5.100000e-01	-1.472822e-04	
1020	5.200000e-01	-1.479639e-04	
1021	5.300000e-01	-1.486248e-04	
1022	5.400000e-01	-1.492650e-04	
1023	5.500000e-01	-1.498886e-04	
1024	5.600000e-01	-1.504979e-04	
1025	5.700000e-01	-1.510905e-04	
1026	5.800000e-01	-1.516661e-04	
1027	5.900000e-01	-1.522287e-04	
1028	6.000000e-01	-1.527802e-04	
1029	6.100000e-01	-1.533179e-04	
1030	6.200000e-01	-1.538412e-04	
1031	6.300000e-01	-1.543542e-04	
1032	6.400000e-01	-1.548584e-04	
1033	6.500000e-01	-1.553511e-04	
1034	6.600000e-01	-1.558313e-04	
1035	6.700000e-01	-1.563031e-04	
1036	6.800000e-01	-1.567681e-04	
1037	6.900000e-01	-1.572232e-04	
1038	7.000000e-01	-1.576673e-04	
1039	7.100000e-01	-1.581045e-04	
1040	7.200000e-01	-1.585364e-04	
1041	7.300000e-01	-1.589596e-04	
1042	7.400000e-01	-1.593731e-04	
1043	7.500000e-01	-1.597809e-04	
1044	7.600000e-01	-1.601846e-04	
1045	7.700000e-01	-1.605807e-04	
1046	7.800000e-01	-1.609679e-04	
1047	7.900000e-01	-1.613506e-04	
1048	8.000000e-01	-1.617300e-04	
1049	8.100000e-01	-1.621026e-04	
1050	8.200000e-01	-1.624672e-04	
1051	8.300000e-01	-1.628280e-04	
1052	8.400000e-01	-1.631864e-04	
1053	8.500000e-01	-1.635387e-04	
1054	8.600000e-01	-1.638837e-04	
1055	8.700000e-01	-1.642254e-04	
1056	8.800000e-01	-1.645655e-04	
1057	8.900000e-01	-1.649000e-04	
1058	9.000000e-01	-1.652277e-04	
1059	9.100000e-01	-1.655528e-04	
1060	9.200000e-01	-1.658768e-04	
1061	9.300000e-01	-1.661957e-04	
1062	9.400000e-01	-1.665082e-04	
1063	9.500000e-01	-1.668186e-04	
1064	9.600000e-01	-1.671283e-04	
1065	9.700000e-01	-1.674334e-04	
1066	9.800000e-01	-1.677324e-04	
1067	9.900000e-01	-1.680298e-04	
1068	1.000000e+00	-1.683269e-04	
1069	1.010000e+00	-1.686197e-04	
1070	1.020000e+00	-1.689068e-04	
1071	1.030000e+00	-1.691926e-04	
1072	1.040000e+00	-1.694785e-04	
1073	1.050000e+00	-1.697603e-04	
1074	1.060000e+00	-1.700367e-04	
1075	1.070000e+00	-1.703121e-04	
1076	1.080000e+00	-1.705879e-04	
1077	1.090000e+00	-1.708600e-04	
1078	1.100000e+00	-1.711268e-04	
1079	1.110000e+00	-1.713928e-04	
1080	1.120000e+00	-1.716596e-04	
1081	1.130000e+00	-1.719228e-04	
1082	1.140000e+00	-1.721810e-04	
1083	1.150000e+00	-1.724386e-04	
1084	1.160000e+00	-1.726972e-04	
1085	1.170000e+00	-1.729525e-04	
1086	1.180000e+00	-1.732028e-04	
1087	1.190000e+00	-1.734529e-04	
1088	1.200000e+00	-1.737034e-04	
1089	0.000000e+00	1.756510e-14	
1090	1.000000e-02	-7.518512e-06	
1091	2.000000e-02	-1.483040e-05	
1092	3.000000e-02	-2.193890e-05	
1093	4.000000e-02	-2.884716e-05	
1094	5.000000e-02	-3.555839e-05	
1095	6.000000e-02	-4.207554e-05	
1096	7.000000e-02	-4.840167e-05	
1097	8.000000e-02	-5.453965e-05	
1098	9.000000e-02	-6.049262e-05	
1099	1.000000e-01	-6.626328e-05	
1100	1.100000e-01	-7.185450e-05	
1101	1.200000e-01	-7.726908e-05	
1102	1.300000e-01	-8.250974e-05	
1103	1.400000e-01	-8.757927e-05	
1104	1.500000e-01	-9.248020e-05	
1105	1.600000e-01	-9.721521e-05	
1106	1.700000e-01	-1.017869e-04	
1107	1.800000e-01	-1.061979e-04	
1108	1.900000e-01	-1.104506e-04	
1109	2.000000e-01	-1.145478e-04	
1110	2.100000e-01	-1.184918e-04	
1111	2.200000e-01	-1.222849e-04	
1112	2.300000e-01	-1.259299e-04	
1113	2.400000e-01	-1.294296e-04	
1114	2.500000e-01	-1.327860e-04	
1115	2.600000e-01	-1.360014e-04	
1116	2.700000e-01	-1.390790e-04	
1117	2.800000e-01	-1.420219e-04	
1118	2.900000e-01	-1.448320e-04	
1119	3.000000e-01	-1.475117e-04	
1120	3.100000e-01	-1.500650e-04	
1121	3.200000e-01	-1.524958e-04	
1122	3.300000e-01	-1.548061e-04	
1123	3.400000e-01	-1.569990e-04	
1124	3.500000e-01	-1.590799e-04	
1125	3.600000e-01	-1.610539e-04	
1126	3.700000e-01	-1.629238e-04	
1127	3.800000e-01	-1.646937e-04	
1128	3.900000e-01	-1.663708e-04	
1129	4.000000e-01	-1.679615e-04	
1130	4.100000e-01	-1.694692e-04	
1131	4.200000e-01	-1.708986e-04	
1132	4.300000e-01	-1.722579e-04	
1133	4.400000e-01	-1.735537e-04	
1134	4.500000e-01	-1.747884e-04	
1135	4.600000e-01	-1.759658e-04	
1136	4.700000e-01	-1.770935e-04	
1137	4.800000e-01	-1.781766e-04	
1138	4.900000e-01	-1.792159e-04	
1139	5.000000e-01	-1.802134e-04	
1140	5.100000e-01	-1.811754e-04	
1141	5.200000e-01	-1.821058e-04	
1142	5.300000e-01	-1.830036e-04	
1143	5.400000e-01	-1.838697e-04	
1144	5.500000e-01	-1.847094e-04	
1145	5.600000e-01	-1.855258e-04	
1146	5.700000e-01	-1.863169e-04	
1147	5.800000e-01	-1.870827e-04	
1148	5.900000e-01	-1.878283e-04	
1149	6.000000e-01	-1.885561e-04	
1150	6.100000e-01	-1.892634e-04	
1151	6.200000e-01	-1.899498e-04	
1152	6.300000e-01	-1.906203e-04	
1153	6.400000e-01	-1.912769e-04	
1154	6.500000e-01	-1.919166e-04	
1155	6.600000e-01	-1.925385e-04	
1156	6.700000e-01	-1.931476e-04	
1157	6.800000e-01	-1.937458e-04	
1158	6.900000e-01	-1.943297e-04	
1159	7.000000e-01	-1.948983e-04	
1160	7.100000e-01	-1.954563e-04	
1161	7.200000e-01	-1.960058e-04	
1162	7.300000e-01	-1.965430e-04	
1163	7.400000e-01	-1.970667e-04	
1164	7.500000e-01	-1.975817e-04	
1165	7.600000e-01	-1.980900e-04	
1166	7.700000e-01	-1.985876e-04	
1167	7.800000e-01	-1.990731e-04	
1168	7.900000e-01	-1.995516e-04	
1169	8.000000e-01	-2.000247e-04	
1170	8.100000e-01	-2.004884e-04	
1171	8.200000e-01	-2.009412e-04	
1172	8.300000e-01	-2.013882e-04	
1173	8.400000e-01	-2.018310e-04	
1174	8.500000e-01	-2.022654e-04	
1175	8.600000e-01	-2.026900e-04	
1176	8.700000e-01	-2.031096e-04	
1177	8.800000e-01	-2.035262e-04	
1178	8.900000e-01	-2.039352e-04	
1179	9.000000e-01	-2.043351e-04	
1180	9.100000e-01	-2.047310e-04	
1181	9.200000e-01	-2.051245e-04	
1182	9.300000e-01	-2.055113e-04	
1183	9.400000e-01	-2.058896e-04	
1184	9.500000e-01	-2.062645e-04	
1185	9.600000e-01	-2.066379e-04	
1186	9.700000e-01	-2.070050e-04	
1187	9.800000e-01	-2.073643e-04	
1188	9.900000e-01	-2.077208e-04	
1189	1.000000e+00	-2.080763e-04	
1190	1.010000e+00	-2.084261e-04	
1191	1.020000e+00	-2.087684e-04	
1192	1.030000e+00	-2.091085e-04	
1193	1.040000e+00	-2.094483e-04	
1194	1.050000e+00	-2.097826e-04	
1195	1.060000e+00	-2.101099e-04	
1196	1.070000e+00	-2.104354e-04	
1197	1.080000e+00	-2.107610e-04	
1198	1.090000e+00	-2.110815e-04	
1199	1.100000e+00	-2.113953e-04	
1200	1.110000e+00	-2.117078e-04	
1201	1.120000e+00	-2.120207e-04	
1202	1.130000e+00	-2.123289e-04	
1203	1.140000e+00	-2.126306e-04	
1204	1.150000e+00	-2.129313e-04	
1205	1.160000e+00	-2.132328e-04	
1206	1.170000e+00	-2.135299e-04	
1207	1.180000e+00	-2.138207e-04	
1208	1.190000e+00	-2.141108e-04	
1209	1.200000e+00	-2.144011e-04	
1210	0.000000e+00	3.205386e-14	
1211	1.000000e-02	-8.260560e-06	
1212	2.000000e-02	-1.631506e-05	
1213	3.000000e-02	-2.416652e-05	
1214	4.000000e-02	-3.181794e-05	
1215	5.000000e-02	-3.927232e-05	
1216	6.000000e-02	-4.653247e-05	
1217	7.000000e-02	-5.360121e-05	
1218	8.000000e-02	-6.048144e-05	
1219	9.000000e-02	-6.717600e-05	
1220	1.000000e-01	-7.368746e-05	
1221	1.100000e-01	-8.001849e-05	
1222	1.200000e-01	-8.617184e-05	
1223	1.300000e-01	-9.215015e-05	
1224	1.400000e-01	-9.795587e-05	
1225	1.500000e-01	-1.035915e-04	
1226	1.600000e-01	-1.090597e-04	
1227	1.700000e-01	-1.143628e-04	
1228	1.800000e-01	-1.195033e-04	
1229	1.900000e-01	-1.244835e-04	
1230	2.000000e-01	-1.293059e-04	
1231	2.100000e-01	-1.339727e-04	
1232	2.200000e-01	-1.384863e-04	
1233	2.300000e-01	-1.428491e-04	
1234	2.400000e-01	-1.470633e-04	
1235	2.500000e-01	-1.511309e-04	
1236	2.600000e-01	-1.550545e-04	
1237	2.700000e-01	-1.588365e-04	
1238	2.800000e-01	-1.624789e-04	
1239	2.900000e-01	-1.659836e-04	
1240	3.000000e-01	-1.693536e-04	
1241	3.100000e-01	-1.725914e-04	
1242	3.200000e-01	-1.756989e-04	
1243	3.300000e-01	-1.786781e-04	
1244	3.400000e-01	-1.815324e-04	
1245	3.500000e-01	-1.842650e-04	
1246	3.600000e-01	-1.868777e-04	
1247	3.700000e-01	-1.893730e-04	
1248	3.800000e-01	-1.917553e-04	
1249	3.900000e-01	-1.940284e-04	
1250	4.000000e-01	-1.961949e-04	
1251	4.100000e-01	-1.982581e-04	
1252	4.200000e-01	-2.002235e-04	
1253	4.300000e-01	-2.020964e-04	
1254	4.400000e-01	-2.038798e-04	
1255	4.500000e-01	-2.055778e-04	
1256	4.600000e-01	-2.071973e-04	
1257	4.700000e-01	-2.087439e-04	
1258	4.800000e-01	-2.102206e-04	
1259	4.900000e-01	-2.116316e-04	
1260	5.000000e-01	-2.129834e-04	
1261	5.100000e-01	-2.142811e-04	
1262	5.200000e-01	-2.155266e-04	
1263	5.300000e-01	-2.167227e-04	
1264	5.400000e-01	-2.178752e-04	
1265	5.500000e-01	-2.189878e-04	
1266	5.600000e-01	-2.200612e-04	
1267	5.700000e-01	-2.210968e-04	
1268	5.800000e-01	-2.220995e-04	
1269	5.900000e-01	-2.230722e-04	
1270	6.000000e-01	-2.240143e-04	
1271	6.100000e-01	-2.249266e-04	
1272	6.200000e-01	-2.258132e-04	
1273	6.300000e-01	-2.266766e-04	
1274	6.400000e-01	-2.275153e-04	
1275	6.500000e-01	-2.283297e-04	
1276	6.600000e-01	-2.291236e-04	
1277	6.700000e-01	-2.298991e-04	
1278	6.800000e-01	-2.306543e-04	
1279	6.900000e-01	-2.313891e-04	
1280	7.000000e-01	-2.321072e-04	
1281	7.100000e-01	-2.328105e-04	
1282	7.200000e-01	-2.334967e-04	
1283	7.300000e-01	-2.341656e-04	
1284	7.400000e-01	-2.348207e-04	
1285	7.500000e-01	-2.354637e-04	
1286	7.600000e-01	-2.360922e-04	
1287	7.700000e-01	-2.367056e-04	
1288	7.800000e-01	-2.373076e-04	
1289	7.900000e-01	-2.378997e-04	
1290	8.000000e-01	-2.384792e-04	
1291	8.100000e-01	-2.390455e-04	
1292	8.200000e-01	-2.396022e-04	
1293	8.300000e-01	-2.401508e-04	
1294	8.400000e-01	-2.406885e-04	
1295	8.500000e-01	-2.412144e-04	
1296	8.600000e-01	-2.417322e-04	
1297	8.700000e-01	-2.422433e-04	
1298	8.800000e-01	-2.427448e-04	
1299	8.900000e-01	-2.432357e-04	
1300	9.000000e-01	-2.437198e-04	
1301	9.100000e-01	-2.441984e-04	
1302	9.200000e-01	-2.446684e-04	
1303	9.300000e-01	-2.451289e-04	
1304	9.400000e-01	-2.455835e-04	
1305	9.500000e-01	-2.460337e-04	
1306	9.600000e-01	-2.464762e-04	
1307	9.700000e-01	-2.469100e-04	
1308	9.800000e-01	-2.473388e-04	
1309	9.900000e-01	-2.477640e-04	
1310	1.000000e+00	-2.481822e-04	
1311	1.010000e+00	-2.485925e-04	
1312	1.020000e+00	-2.489984e-04	
1313	1.030000e+00	-2.494016e-04	
1314	1.040000e+00	-2.497984e-04	
1315	1.050000e+00	-2.501877e-04	
1316	1.060000e+00	-2.505734e-04	
1317	1.070000e+00	-2.509569e-04	
1318	1.080000e+00	-2.513347e-04	
1319	1.090000e+00	-2.517054e-04	
1320	1.100000e+00	-2.520731e-04	
1321	1.110000e+00	-2.524391e-04	
1322	1.120000e+00	-2.527997e-04	
1323	1.130000e+00	-2.531539e-04	
1324	1.140000e+00	-2.535054e-04	
1325	1.150000e+00	-2.538557e-04	
1326	1.160000e+00	-2.542010e-04	
1327	1.170000e+00	-2.545402e-04	
1328	1.180000e+00	-2.548772e-04	
1329	1.190000e+00	-2.552134e-04	
1330	1.200000e+00	-2.555437e-04	

CPU time since last call: 0.600 seconds.

Total CPU time: 0.600 seconds.

Current dynamic memory usage = 344064,
Dynamic memory limit = -18823216.

