Note: can't find init file.

Circuit: ** PMOSFET: Benchmarking of B4SOI Stress Effect by Jane Xi 05/09/2003.

Circuit: ** PMOSFET: Benchmarking of B4SOI Stress Effect by Jane Xi 05/09/2003.
Date: Thu Mar 19 20:54:31  2009


     ** PMOSFET: Benchmarking of B4SOI Stress Effect by Jane Xi 05/09/2003.
     DC transfer characteristic  Thu Mar 19 20:54:31  2009
--------------------------------------------------------------------------------
Index   sweep           vd#branch       
--------------------------------------------------------------------------------
0	0.000000e+00	-1.72795e-24	
1	-2.00000e-02	2.193412e-07	
2	-4.00000e-02	3.654266e-07	
3	-6.00000e-02	4.617248e-07	
4	-8.00000e-02	5.263374e-07	
5	-1.00000e-01	5.713991e-07	
6	-1.20000e-01	6.044084e-07	
7	-1.40000e-01	6.298529e-07	
8	-1.60000e-01	6.504193e-07	
9	-1.80000e-01	6.677461e-07	
10	-2.00000e-01	6.828586e-07	
11	-2.20000e-01	6.964176e-07	
12	-2.40000e-01	7.088608e-07	
13	-2.60000e-01	7.204867e-07	
14	-2.80000e-01	7.315035e-07	
15	-3.00000e-01	7.420598e-07	
16	-3.20000e-01	7.522642e-07	
17	-3.40000e-01	7.621973e-07	
18	-3.60000e-01	7.719201e-07	
19	-3.80000e-01	7.814793e-07	
20	-4.00000e-01	7.909113e-07	
21	-4.20000e-01	8.002448e-07	
22	-4.40000e-01	8.095028e-07	
23	-4.60000e-01	8.187037e-07	
24	-4.80000e-01	8.278626e-07	
25	-5.00000e-01	8.369918e-07	
26	-5.20000e-01	8.461017e-07	
27	-5.40000e-01	8.552008e-07	
28	-5.60000e-01	8.642964e-07	
29	-5.80000e-01	8.733946e-07	
30	-6.00000e-01	8.825007e-07	
31	-6.20000e-01	8.916191e-07	
32	-6.40000e-01	9.007538e-07	
33	-6.60000e-01	9.099082e-07	
34	-6.80000e-01	9.190852e-07	
35	-7.00000e-01	9.282875e-07	
36	-7.20000e-01	9.375174e-07	
37	-7.40000e-01	9.467768e-07	
38	-7.60000e-01	9.560677e-07	
39	-7.80000e-01	9.653917e-07	
40	-8.00000e-01	9.747502e-07	
41	-8.20000e-01	9.841446e-07	
42	-8.40000e-01	9.935761e-07	
43	-8.60000e-01	1.003046e-06	
44	-8.80000e-01	1.012555e-06	
45	-9.00000e-01	1.022103e-06	
46	-9.20000e-01	1.031693e-06	
47	-9.40000e-01	1.041325e-06	
48	-9.60000e-01	1.050999e-06	
49	-9.80000e-01	1.060716e-06	
50	-1.00000e+00	1.070476e-06	
51	-1.02000e+00	1.080281e-06	
52	-1.04000e+00	1.090130e-06	
53	-1.06000e+00	1.100025e-06	
54	-1.08000e+00	1.109965e-06	
55	-1.10000e+00	1.119951e-06	
56	-1.12000e+00	1.129983e-06	
57	-1.14000e+00	1.140062e-06	
58	-1.16000e+00	1.150187e-06	
59	-1.18000e+00	1.160360e-06	
60	-1.20000e+00	1.170579e-06	
61	0.000000e+00	-4.40825e-24	
62	-2.00000e-02	1.031934e-06	
63	-4.00000e-02	1.819481e-06	
64	-6.00000e-02	2.406456e-06	
65	-8.00000e-02	2.837996e-06	
66	-1.00000e-01	3.155194e-06	
67	-1.20000e-01	3.391436e-06	
68	-1.40000e-01	3.571550e-06	
69	-1.60000e-01	3.712954e-06	
70	-1.80000e-01	3.827497e-06	
71	-2.00000e-01	3.923148e-06	
72	-2.20000e-01	4.005289e-06	
73	-2.40000e-01	4.077589e-06	
74	-2.60000e-01	4.142594e-06	
75	-2.80000e-01	4.202095e-06	
76	-3.00000e-01	4.257381e-06	
77	-3.20000e-01	4.309389e-06	
78	-3.40000e-01	4.358818e-06	
79	-3.60000e-01	4.406193e-06	
80	-3.80000e-01	4.451917e-06	
81	-4.00000e-01	4.496303e-06	
82	-4.20000e-01	4.539594e-06	
83	-4.40000e-01	4.581986e-06	
84	-4.60000e-01	4.623635e-06	
85	-4.80000e-01	4.664668e-06	
86	-5.00000e-01	4.705188e-06	
87	-5.20000e-01	4.745282e-06	
88	-5.40000e-01	4.785019e-06	
89	-5.60000e-01	4.824460e-06	
90	-5.80000e-01	4.863656e-06	
91	-6.00000e-01	4.902648e-06	
92	-6.20000e-01	4.941474e-06	
93	-6.40000e-01	4.980164e-06	
94	-6.60000e-01	5.018746e-06	
95	-6.80000e-01	5.057244e-06	
96	-7.00000e-01	5.095677e-06	
97	-7.20000e-01	5.134063e-06	
98	-7.40000e-01	5.172419e-06	
99	-7.60000e-01	5.210758e-06	
100	-7.80000e-01	5.249093e-06	
101	-8.00000e-01	5.287434e-06	
102	-8.20000e-01	5.325791e-06	
103	-8.40000e-01	5.364173e-06	
104	-8.60000e-01	5.402588e-06	
105	-8.80000e-01	5.441042e-06	
106	-9.00000e-01	5.479543e-06	
107	-9.20000e-01	5.518096e-06	
108	-9.40000e-01	5.556706e-06	
109	-9.60000e-01	5.595378e-06	
110	-9.80000e-01	5.634116e-06	
111	-1.00000e+00	5.672924e-06	
112	-1.02000e+00	5.711806e-06	
113	-1.04000e+00	5.750765e-06	
114	-1.06000e+00	5.789804e-06	
115	-1.08000e+00	5.828926e-06	
116	-1.10000e+00	5.868133e-06	
117	-1.12000e+00	5.907428e-06	
118	-1.14000e+00	5.946812e-06	
119	-1.16000e+00	5.986288e-06	
120	-1.18000e+00	6.025858e-06	
121	-1.20000e+00	6.065522e-06	
122	0.000000e+00	-5.77643e-22	
123	-2.00000e-02	2.744126e-06	
124	-4.00000e-02	5.078245e-06	
125	-6.00000e-02	7.033020e-06	
126	-8.00000e-02	8.644973e-06	
127	-1.00000e-01	9.955962e-06	
128	-1.20000e-01	1.101123e-05	
129	-1.40000e-01	1.185631e-05	
130	-1.60000e-01	1.253370e-05	
131	-1.80000e-01	1.308045e-05	
132	-2.00000e-01	1.352697e-05	
133	-2.20000e-01	1.389721e-05	
134	-2.40000e-01	1.420946e-05	
135	-2.60000e-01	1.447744e-05	
136	-2.80000e-01	1.471140e-05	
137	-3.00000e-01	1.491897e-05	
138	-3.20000e-01	1.510585e-05	
139	-3.40000e-01	1.527633e-05	
140	-3.60000e-01	1.543369e-05	
141	-3.80000e-01	1.558043e-05	
142	-4.00000e-01	1.571851e-05	
143	-4.20000e-01	1.584944e-05	
144	-4.40000e-01	1.597442e-05	
145	-4.60000e-01	1.609444e-05	
146	-4.80000e-01	1.621025e-05	
147	-5.00000e-01	1.632250e-05	
148	-5.20000e-01	1.643170e-05	
149	-5.40000e-01	1.653829e-05	
150	-5.60000e-01	1.664262e-05	
151	-5.80000e-01	1.674499e-05	
152	-6.00000e-01	1.684565e-05	
153	-6.20000e-01	1.694482e-05	
154	-6.40000e-01	1.704268e-05	
155	-6.60000e-01	1.713939e-05	
156	-6.80000e-01	1.723509e-05	
157	-7.00000e-01	1.732989e-05	
158	-7.20000e-01	1.742389e-05	
159	-7.40000e-01	1.751719e-05	
160	-7.60000e-01	1.760987e-05	
161	-7.80000e-01	1.770199e-05	
162	-8.00000e-01	1.779362e-05	
163	-8.20000e-01	1.788480e-05	
164	-8.40000e-01	1.797560e-05	
165	-8.60000e-01	1.806604e-05	
166	-8.80000e-01	1.815618e-05	
167	-9.00000e-01	1.824605e-05	
168	-9.20000e-01	1.833567e-05	
169	-9.40000e-01	1.842508e-05	
170	-9.60000e-01	1.851430e-05	
171	-9.80000e-01	1.860335e-05	
172	-1.00000e+00	1.869226e-05	
173	-1.02000e+00	1.878105e-05	
174	-1.04000e+00	1.886973e-05	
175	-1.06000e+00	1.895832e-05	
176	-1.08000e+00	1.904683e-05	
177	-1.10000e+00	1.913529e-05	
178	-1.12000e+00	1.922369e-05	
179	-1.14000e+00	1.931205e-05	
180	-1.16000e+00	1.940039e-05	
181	-1.18000e+00	1.948871e-05	
182	-1.20000e+00	1.957702e-05	
183	0.000000e+00	-1.67110e-21	
184	-2.00000e-02	4.827833e-06	
185	-4.00000e-02	9.163653e-06	
186	-6.00000e-02	1.302561e-05	
187	-8.00000e-02	1.643461e-05	
188	-1.00000e-01	1.941509e-05	
189	-1.20000e-01	2.199551e-05	
190	-1.40000e-01	2.420864e-05	
191	-1.60000e-01	2.609110e-05	
192	-1.80000e-01	2.768219e-05	
193	-2.00000e-01	2.902214e-05	
194	-2.20000e-01	3.015003e-05	
195	-2.40000e-01	3.110200e-05	
196	-2.60000e-01	3.190998e-05	
197	-2.80000e-01	3.260118e-05	
198	-3.00000e-01	3.319813e-05	
199	-3.20000e-01	3.371912e-05	
200	-3.40000e-01	3.417877e-05	
201	-3.60000e-01	3.458871e-05	
202	-3.80000e-01	3.495814e-05	
203	-4.00000e-01	3.529437e-05	
204	-4.20000e-01	3.560320e-05	
205	-4.40000e-01	3.588925e-05	
206	-4.60000e-01	3.615624e-05	
207	-4.80000e-01	3.640718e-05	
208	-5.00000e-01	3.664451e-05	
209	-5.20000e-01	3.687021e-05	
210	-5.40000e-01	3.708594e-05	
211	-5.60000e-01	3.729305e-05	
212	-5.80000e-01	3.749269e-05	
213	-6.00000e-01	3.768582e-05	
214	-6.20000e-01	3.787323e-05	
215	-6.40000e-01	3.805561e-05	
216	-6.60000e-01	3.823355e-05	
217	-6.80000e-01	3.840754e-05	
218	-7.00000e-01	3.857803e-05	
219	-7.20000e-01	3.874538e-05	
220	-7.40000e-01	3.890992e-05	
221	-7.60000e-01	3.907194e-05	
222	-7.80000e-01	3.923168e-05	
223	-8.00000e-01	3.938937e-05	
224	-8.20000e-01	3.954520e-05	
225	-8.40000e-01	3.969934e-05	
226	-8.60000e-01	3.985194e-05	
227	-8.80000e-01	4.000314e-05	
228	-9.00000e-01	4.015307e-05	
229	-9.20000e-01	4.030182e-05	
230	-9.40000e-01	4.044951e-05	
231	-9.60000e-01	4.059622e-05	
232	-9.80000e-01	4.074203e-05	
233	-1.00000e+00	4.088702e-05	
234	-1.02000e+00	4.103124e-05	
235	-1.04000e+00	4.117476e-05	
236	-1.06000e+00	4.131764e-05	
237	-1.08000e+00	4.145992e-05	
238	-1.10000e+00	4.160166e-05	
239	-1.12000e+00	4.174289e-05	
240	-1.14000e+00	4.188364e-05	
241	-1.16000e+00	4.202397e-05	
242	-1.18000e+00	4.216390e-05	
243	-1.20000e+00	4.230346e-05	
244	0.000000e+00	-1.45618e-21	
245	-2.00000e-02	6.854607e-06	
246	-4.00000e-02	1.318441e-05	
247	-6.00000e-02	1.900191e-05	
248	-8.00000e-02	2.432061e-05	
249	-1.00000e-01	2.915535e-05	
250	-1.20000e-01	3.352282e-05	
251	-1.40000e-01	3.744200e-05	
252	-1.60000e-01	4.093467e-05	
253	-1.80000e-01	4.402581e-05	
254	-2.00000e-01	4.674368e-05	
255	-2.20000e-01	4.911956e-05	
256	-2.40000e-01	5.118706e-05	
257	-2.60000e-01	5.298096e-05	
258	-2.80000e-01	5.453587e-05	
259	-3.00000e-01	5.588494e-05	
260	-3.20000e-01	5.705875e-05	
261	-3.40000e-01	5.808466e-05	
262	-3.60000e-01	5.898651e-05	
263	-3.80000e-01	5.978461e-05	
264	-4.00000e-01	6.049607e-05	
265	-4.20000e-01	6.113510e-05	
266	-4.40000e-01	6.171342e-05	
267	-4.60000e-01	6.224072e-05	
268	-4.80000e-01	6.272493e-05	
269	-5.00000e-01	6.317260e-05	
270	-5.20000e-01	6.358914e-05	
271	-5.40000e-01	6.397901e-05	
272	-5.60000e-01	6.434592e-05	
273	-5.80000e-01	6.469297e-05	
274	-6.00000e-01	6.502277e-05	
275	-6.20000e-01	6.533750e-05	
276	-6.40000e-01	6.563902e-05	
277	-6.60000e-01	6.592890e-05	
278	-6.80000e-01	6.620848e-05	
279	-7.00000e-01	6.647892e-05	
280	-7.20000e-01	6.674123e-05	
281	-7.40000e-01	6.699625e-05	
282	-7.60000e-01	6.724474e-05	
283	-7.80000e-01	6.748735e-05	
284	-8.00000e-01	6.772467e-05	
285	-8.20000e-01	6.795718e-05	
286	-8.40000e-01	6.818533e-05	
287	-8.60000e-01	6.840953e-05	
288	-8.80000e-01	6.863011e-05	
289	-9.00000e-01	6.884739e-05	
290	-9.20000e-01	6.906165e-05	
291	-9.40000e-01	6.927313e-05	
292	-9.60000e-01	6.948206e-05	
293	-9.80000e-01	6.968864e-05	
294	-1.00000e+00	6.989306e-05	
295	-1.02000e+00	7.009547e-05	
296	-1.04000e+00	7.029603e-05	
297	-1.06000e+00	7.049487e-05	
298	-1.08000e+00	7.069211e-05	
299	-1.10000e+00	7.088787e-05	
300	-1.12000e+00	7.108226e-05	
301	-1.14000e+00	7.127536e-05	
302	-1.16000e+00	7.146726e-05	
303	-1.18000e+00	7.165805e-05	
304	-1.20000e+00	7.184779e-05	
305	0.000000e+00	-3.34519e-21	
306	-2.00000e-02	8.705221e-06	
307	-4.00000e-02	1.687582e-05	
308	-6.00000e-02	2.452164e-05	
309	-8.00000e-02	3.165283e-05	
310	-1.00000e-01	3.827996e-05	
311	-1.20000e-01	4.441426e-05	
312	-1.40000e-01	5.006785e-05	
313	-1.60000e-01	5.525408e-05	
314	-1.80000e-01	5.998787e-05	
315	-2.00000e-01	6.428611e-05	
316	-2.20000e-01	6.816800e-05	
317	-2.40000e-01	7.165537e-05	
318	-2.60000e-01	7.477271e-05	
319	-2.80000e-01	7.754704e-05	
320	-3.00000e-01	8.000735e-05	
321	-3.20000e-01	8.218390e-05	
322	-3.40000e-01	8.410724e-05	
323	-3.60000e-01	8.580721e-05	
324	-3.80000e-01	8.731211e-05	
325	-4.00000e-01	8.864802e-05	
326	-4.20000e-01	8.983842e-05	
327	-4.40000e-01	9.090403e-05	
328	-4.60000e-01	9.186286e-05	
329	-4.80000e-01	9.273039e-05	
330	-5.00000e-01	9.351978e-05	
331	-5.20000e-01	9.424222e-05	
332	-5.40000e-01	9.490711e-05	
333	-5.60000e-01	9.552243e-05	
334	-5.80000e-01	9.609488e-05	
335	-6.00000e-01	9.663011e-05	
336	-6.20000e-01	9.713294e-05	
337	-6.40000e-01	9.760742e-05	
338	-6.60000e-01	9.805702e-05	
339	-6.80000e-01	9.848470e-05	
340	-7.00000e-01	9.889298e-05	
341	-7.20000e-01	9.928405e-05	
342	-7.40000e-01	9.965979e-05	
343	-7.60000e-01	1.000218e-04	
344	-7.80000e-01	1.003716e-04	
345	-8.00000e-01	1.007103e-04	
346	-8.20000e-01	1.010390e-04	
347	-8.40000e-01	1.013588e-04	
348	-8.60000e-01	1.016703e-04	
349	-8.80000e-01	1.019744e-04	
350	-9.00000e-01	1.022718e-04	
351	-9.20000e-01	1.025629e-04	
352	-9.40000e-01	1.028484e-04	
353	-9.60000e-01	1.031287e-04	
354	-9.80000e-01	1.034041e-04	
355	-1.00000e+00	1.036752e-04	
356	-1.02000e+00	1.039422e-04	
357	-1.04000e+00	1.042055e-04	
358	-1.06000e+00	1.044653e-04	
359	-1.08000e+00	1.047218e-04	
360	-1.10000e+00	1.049753e-04	
361	-1.12000e+00	1.052261e-04	
362	-1.14000e+00	1.054742e-04	
363	-1.16000e+00	1.057199e-04	
364	-1.18000e+00	1.059634e-04	
365	-1.20000e+00	1.062047e-04	
366	0.000000e+00	-4.25453e-22	
367	-2.00000e-02	1.036528e-05	
368	-4.00000e-02	2.019771e-05	
369	-6.00000e-02	2.950565e-05	
370	-8.00000e-02	3.829749e-05	
371	-1.00000e-01	4.658172e-05	
372	-1.20000e-01	5.436699e-05	
373	-1.40000e-01	6.166221e-05	
374	-1.60000e-01	6.847674e-05	
375	-1.80000e-01	7.482051e-05	
376	-2.00000e-01	8.070430e-05	
377	-2.20000e-01	8.613996e-05	
378	-2.40000e-01	9.114076e-05	
379	-2.60000e-01	9.572167e-05	
380	-2.80000e-01	9.989966e-05	
381	-3.00000e-01	1.036939e-04	
382	-3.20000e-01	1.071259e-04	
383	-3.40000e-01	1.102192e-04	
384	-3.60000e-01	1.129991e-04	
385	-3.80000e-01	1.154924e-04	
386	-4.00000e-01	1.177260e-04	
387	-4.20000e-01	1.197267e-04	
388	-4.40000e-01	1.215206e-04	
389	-4.60000e-01	1.231318e-04	
390	-4.80000e-01	1.245828e-04	
391	-5.00000e-01	1.258940e-04	
392	-5.20000e-01	1.270832e-04	
393	-5.40000e-01	1.281664e-04	
394	-5.60000e-01	1.291574e-04	
395	-5.80000e-01	1.300682e-04	
396	-6.00000e-01	1.309091e-04	
397	-6.20000e-01	1.316890e-04	
398	-6.40000e-01	1.324155e-04	
399	-6.60000e-01	1.330951e-04	
400	-6.80000e-01	1.337336e-04	
401	-7.00000e-01	1.343356e-04	
402	-7.20000e-01	1.349055e-04	
403	-7.40000e-01	1.354468e-04	
404	-7.60000e-01	1.359626e-04	
405	-7.80000e-01	1.364557e-04	
406	-8.00000e-01	1.369283e-04	
407	-8.20000e-01	1.373826e-04	
408	-8.40000e-01	1.378205e-04	
409	-8.60000e-01	1.382433e-04	
410	-8.80000e-01	1.386527e-04	
411	-9.00000e-01	1.390497e-04	
412	-9.20000e-01	1.394356e-04	
413	-9.40000e-01	1.398112e-04	
414	-9.60000e-01	1.401775e-04	
415	-9.80000e-01	1.405352e-04	
416	-1.00000e+00	1.408851e-04	
417	-1.02000e+00	1.412277e-04	
418	-1.04000e+00	1.415636e-04	
419	-1.06000e+00	1.418933e-04	
420	-1.08000e+00	1.422173e-04	
421	-1.10000e+00	1.425360e-04	
422	-1.12000e+00	1.428498e-04	
423	-1.14000e+00	1.431590e-04	
424	-1.16000e+00	1.434640e-04	
425	-1.18000e+00	1.437649e-04	
426	-1.20000e+00	1.440622e-04	
427	0.000000e+00	-2.03904e-21	
428	-2.00000e-02	1.184478e-05	
429	-4.00000e-02	2.316488e-05	
430	-6.00000e-02	3.396770e-05	
431	-8.00000e-02	4.426055e-05	
432	-1.00000e-01	5.405072e-05	
433	-1.20000e-01	6.334546e-05	
434	-1.40000e-01	7.215206e-05	
435	-1.60000e-01	8.047791e-05	
436	-1.80000e-01	8.833053e-05	
437	-2.00000e-01	9.571775e-05	
438	-2.20000e-01	1.026477e-04	
439	-2.40000e-01	1.091293e-04	
440	-2.60000e-01	1.151719e-04	
441	-2.80000e-01	1.207861e-04	
442	-3.00000e-01	1.259836e-04	
443	-3.20000e-01	1.307778e-04	
444	-3.40000e-01	1.351837e-04	
445	-3.60000e-01	1.392183e-04	
446	-3.80000e-01	1.429006e-04	
447	-4.00000e-01	1.462513e-04	
448	-4.20000e-01	1.492930e-04	
449	-4.40000e-01	1.520491e-04	
450	-4.60000e-01	1.545439e-04	
451	-4.80000e-01	1.568015e-04	
452	-5.00000e-01	1.588455e-04	
453	-5.20000e-01	1.606985e-04	
454	-5.40000e-01	1.623815e-04	
455	-5.60000e-01	1.639139e-04	
456	-5.80000e-01	1.653133e-04	
457	-6.00000e-01	1.665955e-04	
458	-6.20000e-01	1.677744e-04	
459	-6.40000e-01	1.688624e-04	
460	-6.60000e-01	1.698702e-04	
461	-6.80000e-01	1.708074e-04	
462	-7.00000e-01	1.716821e-04	
463	-7.20000e-01	1.725015e-04	
464	-7.40000e-01	1.732718e-04	
465	-7.60000e-01	1.739984e-04	
466	-7.80000e-01	1.746861e-04	
467	-8.00000e-01	1.753390e-04	
468	-8.20000e-01	1.759607e-04	
469	-8.40000e-01	1.765543e-04	
470	-8.60000e-01	1.771227e-04	
471	-8.80000e-01	1.776683e-04	
472	-9.00000e-01	1.781932e-04	
473	-9.20000e-01	1.786994e-04	
474	-9.40000e-01	1.791885e-04	
475	-9.60000e-01	1.796620e-04	
476	-9.80000e-01	1.801213e-04	
477	-1.00000e+00	1.805676e-04	
478	-1.02000e+00	1.810020e-04	
479	-1.04000e+00	1.814253e-04	
480	-1.06000e+00	1.818386e-04	
481	-1.08000e+00	1.822425e-04	
482	-1.10000e+00	1.826377e-04	
483	-1.12000e+00	1.830249e-04	
484	-1.14000e+00	1.834047e-04	
485	-1.16000e+00	1.837776e-04	
486	-1.18000e+00	1.841441e-04	
487	-1.20000e+00	1.845046e-04	
488	0.000000e+00	-1.02302e-20	
489	-2.00000e-02	1.315880e-05	
490	-4.00000e-02	2.580485e-05	
491	-6.00000e-02	3.794482e-05	
492	-8.00000e-02	4.958526e-05	
493	-1.00000e-01	6.073265e-05	
494	-1.20000e-01	7.139337e-05	
495	-1.40000e-01	8.157377e-05	
496	-1.60000e-01	9.128012e-05	
497	-1.80000e-01	1.005187e-04	
498	-2.00000e-01	1.092958e-04	
499	-2.20000e-01	1.176179e-04	
500	-2.40000e-01	1.254915e-04	
501	-2.60000e-01	1.329233e-04	
502	-2.80000e-01	1.399206e-04	
503	-3.00000e-01	1.464911e-04	
504	-3.20000e-01	1.526432e-04	
505	-3.40000e-01	1.583861e-04	
506	-3.60000e-01	1.637304e-04	
507	-3.80000e-01	1.686880e-04	
508	-4.00000e-01	1.732722e-04	
509	-4.20000e-01	1.774982e-04	
510	-4.40000e-01	1.813828e-04	
511	-4.60000e-01	1.849446e-04	
512	-4.80000e-01	1.882035e-04	
513	-5.00000e-01	1.911805e-04	
514	-5.20000e-01	1.938973e-04	
515	-5.40000e-01	1.963758e-04	
516	-5.60000e-01	1.986375e-04	
517	-5.80000e-01	2.007032e-04	
518	-6.00000e-01	2.025925e-04	
519	-6.20000e-01	2.043239e-04	
520	-6.40000e-01	2.059142e-04	
521	-6.60000e-01	2.073788e-04	
522	-6.80000e-01	2.087315e-04	
523	-7.00000e-01	2.099846e-04	
524	-7.20000e-01	2.111493e-04	
525	-7.40000e-01	2.122351e-04	
526	-7.60000e-01	2.132508e-04	
527	-7.80000e-01	2.142037e-04	
528	-8.00000e-01	2.151006e-04	
529	-8.20000e-01	2.159474e-04	
530	-8.40000e-01	2.167491e-04	
531	-8.60000e-01	2.175104e-04	
532	-8.80000e-01	2.182352e-04	
533	-9.00000e-01	2.189270e-04	
534	-9.20000e-01	2.195890e-04	
535	-9.40000e-01	2.202239e-04	
536	-9.60000e-01	2.208342e-04	
537	-9.80000e-01	2.214220e-04	
538	-1.00000e+00	2.219894e-04	
539	-1.02000e+00	2.225381e-04	
540	-1.04000e+00	2.230696e-04	
541	-1.06000e+00	2.235853e-04	
542	-1.08000e+00	2.240865e-04	
543	-1.10000e+00	2.245743e-04	
544	-1.12000e+00	2.250497e-04	
545	-1.14000e+00	2.255137e-04	
546	-1.16000e+00	2.259670e-04	
547	-1.18000e+00	2.264106e-04	
548	-1.20000e+00	2.268449e-04	

CPU time since last call: 0.100 seconds.

Total CPU time: 0.100 seconds.

Current dynamic memory usage = 221184,
Dynamic memory limit = -18361312.

