Note: can't find init file.

Circuit: ** NMOSFET: Benchmarking of B4SOI Id-Vd by Jane Xi 05/09/2003.

Warning: Pd = 0 is less than W.
Warning: Ps = 0 is less than W.
Circuit: ** NMOSFET: Benchmarking of B4SOI Id-Vd by Jane Xi 05/09/2003.
Date: Thu Mar 19 20:54:30  2009


         ** NMOSFET: Benchmarking of B4SOI Id-Vd by Jane Xi 05/09/2003.
         DC transfer characteristic  Thu Mar 19 20:54:30  2009
--------------------------------------------------------------------------------
Index   sweep           vd#branch       
--------------------------------------------------------------------------------
0	0.000000e+00	3.745008e-18	
1	1.000000e-02	-1.68741e-09	
2	2.000000e-02	-2.91222e-09	
3	3.000000e-02	-3.74980e-09	
4	4.000000e-02	-4.29876e-09	
5	5.000000e-02	-4.65844e-09	
6	6.000000e-02	-4.90588e-09	
7	7.000000e-02	-5.08987e-09	
8	8.000000e-02	-5.23798e-09	
9	9.000000e-02	-5.36520e-09	
10	1.000000e-01	-5.47974e-09	
11	1.100000e-01	-5.58625e-09	
12	1.200000e-01	-5.68746e-09	
13	1.300000e-01	-5.78506e-09	
14	1.400000e-01	-5.88012e-09	
15	1.500000e-01	-5.97336e-09	
16	1.600000e-01	-6.06528e-09	
17	1.700000e-01	-6.15624e-09	
18	1.800000e-01	-6.24651e-09	
19	1.900000e-01	-6.33628e-09	
20	2.000000e-01	-6.42572e-09	
21	2.100000e-01	-6.51495e-09	
22	2.200000e-01	-6.60407e-09	
23	2.300000e-01	-6.69317e-09	
24	2.400000e-01	-6.78233e-09	
25	2.500000e-01	-6.87161e-09	
26	2.600000e-01	-6.96105e-09	
27	2.700000e-01	-7.05072e-09	
28	2.800000e-01	-7.14066e-09	
29	2.900000e-01	-7.23090e-09	
30	3.000000e-01	-7.32148e-09	
31	3.100000e-01	-7.41244e-09	
32	3.200000e-01	-7.50380e-09	
33	3.300000e-01	-7.59560e-09	
34	3.400000e-01	-7.68786e-09	
35	3.500000e-01	-7.78060e-09	
36	3.600000e-01	-7.87385e-09	
37	3.700000e-01	-7.96764e-09	
38	3.800000e-01	-8.06198e-09	
39	3.900000e-01	-8.15689e-09	
40	4.000000e-01	-8.25240e-09	
41	4.100000e-01	-8.34852e-09	
42	4.200000e-01	-8.44526e-09	
43	4.300000e-01	-8.54266e-09	
44	4.400000e-01	-8.64072e-09	
45	4.500000e-01	-8.73946e-09	
46	4.600000e-01	-8.83890e-09	
47	4.700000e-01	-8.93906e-09	
48	4.800000e-01	-9.03993e-09	
49	4.900000e-01	-9.14156e-09	
50	5.000000e-01	-9.24394e-09	
51	5.100000e-01	-9.34709e-09	
52	5.200000e-01	-9.45102e-09	
53	5.300000e-01	-9.55576e-09	
54	5.400000e-01	-9.66130e-09	
55	5.500000e-01	-9.76768e-09	
56	5.600000e-01	-9.87489e-09	
57	5.700000e-01	-9.98295e-09	
58	5.800000e-01	-1.00919e-08	
59	5.900000e-01	-1.02017e-08	
60	6.000000e-01	-1.03124e-08	
61	6.100000e-01	-1.04240e-08	
62	6.200000e-01	-1.05365e-08	
63	6.300000e-01	-1.06499e-08	
64	6.400000e-01	-1.07643e-08	
65	6.500000e-01	-1.08796e-08	
66	6.600000e-01	-1.09959e-08	
67	6.700000e-01	-1.11132e-08	
68	6.800000e-01	-1.12315e-08	
69	6.900000e-01	-1.13507e-08	
70	7.000000e-01	-1.14710e-08	
71	7.100000e-01	-1.15923e-08	
72	7.200000e-01	-1.17146e-08	
73	7.300000e-01	-1.18380e-08	
74	7.400000e-01	-1.19625e-08	
75	7.500000e-01	-1.20880e-08	
76	7.600000e-01	-1.22146e-08	
77	7.700000e-01	-1.23423e-08	
78	7.800000e-01	-1.24711e-08	
79	7.900000e-01	-1.26010e-08	
80	8.000000e-01	-1.27320e-08	
81	8.100000e-01	-1.28642e-08	
82	8.200000e-01	-1.29976e-08	
83	8.300000e-01	-1.31321e-08	
84	8.400000e-01	-1.32678e-08	
85	8.500000e-01	-1.34047e-08	
86	8.600000e-01	-1.35428e-08	
87	8.700000e-01	-1.36821e-08	
88	8.800000e-01	-1.38226e-08	
89	8.900000e-01	-1.39644e-08	
90	9.000000e-01	-1.41074e-08	
91	9.100000e-01	-1.42517e-08	
92	9.200000e-01	-1.43973e-08	
93	9.300000e-01	-1.45442e-08	
94	9.400000e-01	-1.46924e-08	
95	9.500000e-01	-1.48418e-08	
96	9.600000e-01	-1.49927e-08	
97	9.700000e-01	-1.51448e-08	
98	9.800000e-01	-1.52983e-08	
99	9.900000e-01	-1.54532e-08	
100	1.000000e+00	-1.56095e-08	
101	1.010000e+00	-1.57672e-08	
102	1.020000e+00	-1.59262e-08	
103	1.030000e+00	-1.60867e-08	
104	1.040000e+00	-1.62487e-08	
105	1.050000e+00	-1.64120e-08	
106	1.060000e+00	-1.65769e-08	
107	1.070000e+00	-1.67432e-08	
108	1.080000e+00	-1.69110e-08	
109	1.090000e+00	-1.70803e-08	
110	1.100000e+00	-1.72511e-08	
111	1.110000e+00	-1.74235e-08	
112	1.120000e+00	-1.75974e-08	
113	1.130000e+00	-1.77728e-08	
114	1.140000e+00	-1.79499e-08	
115	1.150000e+00	-1.81285e-08	
116	1.160000e+00	-1.83087e-08	
117	1.170000e+00	-1.84906e-08	
118	1.180000e+00	-1.86741e-08	
119	1.190000e+00	-1.88592e-08	
120	1.200000e+00	-1.90460e-08	
121	0.000000e+00	1.843013e-17	
122	1.000000e-02	-2.97240e-08	
123	2.000000e-02	-5.16099e-08	
124	3.000000e-02	-6.68313e-08	
125	4.000000e-02	-7.69513e-08	
126	5.000000e-02	-8.36144e-08	
127	6.000000e-02	-8.81649e-08	
128	7.000000e-02	-9.14956e-08	
129	8.000000e-02	-9.41281e-08	
130	9.000000e-02	-9.63512e-08	
131	1.000000e-01	-9.83245e-08	
132	1.100000e-01	-1.00139e-07	
133	1.200000e-01	-1.01847e-07	
134	1.300000e-01	-1.03482e-07	
135	1.400000e-01	-1.05064e-07	
136	1.500000e-01	-1.06608e-07	
137	1.600000e-01	-1.08122e-07	
138	1.700000e-01	-1.09614e-07	
139	1.800000e-01	-1.11089e-07	
140	1.900000e-01	-1.12551e-07	
141	2.000000e-01	-1.14002e-07	
142	2.100000e-01	-1.15445e-07	
143	2.200000e-01	-1.16881e-07	
144	2.300000e-01	-1.18313e-07	
145	2.400000e-01	-1.19741e-07	
146	2.500000e-01	-1.21167e-07	
147	2.600000e-01	-1.22592e-07	
148	2.700000e-01	-1.24016e-07	
149	2.800000e-01	-1.25441e-07	
150	2.900000e-01	-1.26867e-07	
151	3.000000e-01	-1.28294e-07	
152	3.100000e-01	-1.29724e-07	
153	3.200000e-01	-1.31156e-07	
154	3.300000e-01	-1.32592e-07	
155	3.400000e-01	-1.34032e-07	
156	3.500000e-01	-1.35475e-07	
157	3.600000e-01	-1.36923e-07	
158	3.700000e-01	-1.38376e-07	
159	3.800000e-01	-1.39834e-07	
160	3.900000e-01	-1.41297e-07	
161	4.000000e-01	-1.42766e-07	
162	4.100000e-01	-1.44242e-07	
163	4.200000e-01	-1.45723e-07	
164	4.300000e-01	-1.47211e-07	
165	4.400000e-01	-1.48706e-07	
166	4.500000e-01	-1.50208e-07	
167	4.600000e-01	-1.51718e-07	
168	4.700000e-01	-1.53235e-07	
169	4.800000e-01	-1.54759e-07	
170	4.900000e-01	-1.56292e-07	
171	5.000000e-01	-1.57833e-07	
172	5.100000e-01	-1.59382e-07	
173	5.200000e-01	-1.60939e-07	
174	5.300000e-01	-1.62506e-07	
175	5.400000e-01	-1.64081e-07	
176	5.500000e-01	-1.65665e-07	
177	5.600000e-01	-1.67258e-07	
178	5.700000e-01	-1.68861e-07	
179	5.800000e-01	-1.70473e-07	
180	5.900000e-01	-1.72095e-07	
181	6.000000e-01	-1.73727e-07	
182	6.100000e-01	-1.75369e-07	
183	6.200000e-01	-1.77020e-07	
184	6.300000e-01	-1.78682e-07	
185	6.400000e-01	-1.80355e-07	
186	6.500000e-01	-1.82038e-07	
187	6.600000e-01	-1.83732e-07	
188	6.700000e-01	-1.85436e-07	
189	6.800000e-01	-1.87152e-07	
190	6.900000e-01	-1.88878e-07	
191	7.000000e-01	-1.90616e-07	
192	7.100000e-01	-1.92365e-07	
193	7.200000e-01	-1.94126e-07	
194	7.300000e-01	-1.95898e-07	
195	7.400000e-01	-1.97682e-07	
196	7.500000e-01	-1.99478e-07	
197	7.600000e-01	-2.01285e-07	
198	7.700000e-01	-2.03105e-07	
199	7.800000e-01	-2.04937e-07	
200	7.900000e-01	-2.06782e-07	
201	8.000000e-01	-2.08638e-07	
202	8.100000e-01	-2.10508e-07	
203	8.200000e-01	-2.12390e-07	
204	8.300000e-01	-2.14285e-07	
205	8.400000e-01	-2.16192e-07	
206	8.500000e-01	-2.18113e-07	
207	8.600000e-01	-2.20047e-07	
208	8.700000e-01	-2.21994e-07	
209	8.800000e-01	-2.23955e-07	
210	8.900000e-01	-2.25929e-07	
211	9.000000e-01	-2.27917e-07	
212	9.100000e-01	-2.29919e-07	
213	9.200000e-01	-2.31934e-07	
214	9.300000e-01	-2.33963e-07	
215	9.400000e-01	-2.36007e-07	
216	9.500000e-01	-2.38064e-07	
217	9.600000e-01	-2.40136e-07	
218	9.700000e-01	-2.42223e-07	
219	9.800000e-01	-2.44324e-07	
220	9.900000e-01	-2.46439e-07	
221	1.000000e+00	-2.48570e-07	
222	1.010000e+00	-2.50715e-07	
223	1.020000e+00	-2.52875e-07	
224	1.030000e+00	-2.55051e-07	
225	1.040000e+00	-2.57241e-07	
226	1.050000e+00	-2.59447e-07	
227	1.060000e+00	-2.61669e-07	
228	1.070000e+00	-2.63906e-07	
229	1.080000e+00	-2.66159e-07	
230	1.090000e+00	-2.68427e-07	
231	1.100000e+00	-2.70712e-07	
232	1.110000e+00	-2.73013e-07	
233	1.120000e+00	-2.75329e-07	
234	1.130000e+00	-2.77663e-07	
235	1.140000e+00	-2.80012e-07	
236	1.150000e+00	-2.82378e-07	
237	1.160000e+00	-2.84761e-07	
238	1.170000e+00	-2.87161e-07	
239	1.180000e+00	-2.89577e-07	
240	1.190000e+00	-2.92011e-07	
241	1.200000e+00	-2.94462e-07	
242	0.000000e+00	7.865259e-17	
243	1.000000e-02	-2.68927e-07	
244	2.000000e-02	-4.85409e-07	
245	3.000000e-02	-6.53621e-07	
246	4.000000e-02	-7.79471e-07	
247	5.000000e-02	-8.70648e-07	
248	6.000000e-02	-9.35780e-07	
249	7.000000e-02	-9.82949e-07	
250	8.000000e-02	-1.01849e-06	
251	9.000000e-02	-1.04675e-06	
252	1.000000e-01	-1.07045e-06	
253	1.100000e-01	-1.09123e-06	
254	1.200000e-01	-1.11010e-06	
255	1.300000e-01	-1.12765e-06	
256	1.400000e-01	-1.14427e-06	
257	1.500000e-01	-1.16021e-06	
258	1.600000e-01	-1.17564e-06	
259	1.700000e-01	-1.19066e-06	
260	1.800000e-01	-1.20536e-06	
261	1.900000e-01	-1.21981e-06	
262	2.000000e-01	-1.23404e-06	
263	2.100000e-01	-1.24809e-06	
264	2.200000e-01	-1.26198e-06	
265	2.300000e-01	-1.27575e-06	
266	2.400000e-01	-1.28941e-06	
267	2.500000e-01	-1.30298e-06	
268	2.600000e-01	-1.31646e-06	
269	2.700000e-01	-1.32987e-06	
270	2.800000e-01	-1.34322e-06	
271	2.900000e-01	-1.35652e-06	
272	3.000000e-01	-1.36977e-06	
273	3.100000e-01	-1.38299e-06	
274	3.200000e-01	-1.39618e-06	
275	3.300000e-01	-1.40934e-06	
276	3.400000e-01	-1.42248e-06	
277	3.500000e-01	-1.43560e-06	
278	3.600000e-01	-1.44872e-06	
279	3.700000e-01	-1.46183e-06	
280	3.800000e-01	-1.47493e-06	
281	3.900000e-01	-1.48803e-06	
282	4.000000e-01	-1.50114e-06	
283	4.100000e-01	-1.51425e-06	
284	4.200000e-01	-1.52738e-06	
285	4.300000e-01	-1.54051e-06	
286	4.400000e-01	-1.55366e-06	
287	4.500000e-01	-1.56683e-06	
288	4.600000e-01	-1.58002e-06	
289	4.700000e-01	-1.59322e-06	
290	4.800000e-01	-1.60645e-06	
291	4.900000e-01	-1.61971e-06	
292	5.000000e-01	-1.63299e-06	
293	5.100000e-01	-1.64631e-06	
294	5.200000e-01	-1.65965e-06	
295	5.300000e-01	-1.67302e-06	
296	5.400000e-01	-1.68643e-06	
297	5.500000e-01	-1.69987e-06	
298	5.600000e-01	-1.71335e-06	
299	5.700000e-01	-1.72687e-06	
300	5.800000e-01	-1.74043e-06	
301	5.900000e-01	-1.75402e-06	
302	6.000000e-01	-1.76766e-06	
303	6.100000e-01	-1.78134e-06	
304	6.200000e-01	-1.79507e-06	
305	6.300000e-01	-1.80884e-06	
306	6.400000e-01	-1.82265e-06	
307	6.500000e-01	-1.83652e-06	
308	6.600000e-01	-1.85043e-06	
309	6.700000e-01	-1.86439e-06	
310	6.800000e-01	-1.87840e-06	
311	6.900000e-01	-1.89245e-06	
312	7.000000e-01	-1.90657e-06	
313	7.100000e-01	-1.92073e-06	
314	7.200000e-01	-1.93494e-06	
315	7.300000e-01	-1.94921e-06	
316	7.400000e-01	-1.96354e-06	
317	7.500000e-01	-1.97792e-06	
318	7.600000e-01	-1.99235e-06	
319	7.700000e-01	-2.00684e-06	
320	7.800000e-01	-2.02139e-06	
321	7.900000e-01	-2.03600e-06	
322	8.000000e-01	-2.05067e-06	
323	8.100000e-01	-2.06539e-06	
324	8.200000e-01	-2.08018e-06	
325	8.300000e-01	-2.09503e-06	
326	8.400000e-01	-2.10993e-06	
327	8.500000e-01	-2.12490e-06	
328	8.600000e-01	-2.13993e-06	
329	8.700000e-01	-2.15503e-06	
330	8.800000e-01	-2.17018e-06	
331	8.900000e-01	-2.18541e-06	
332	9.000000e-01	-2.20069e-06	
333	9.100000e-01	-2.21604e-06	
334	9.200000e-01	-2.23146e-06	
335	9.300000e-01	-2.24694e-06	
336	9.400000e-01	-2.26249e-06	
337	9.500000e-01	-2.27811e-06	
338	9.600000e-01	-2.29379e-06	
339	9.700000e-01	-2.30954e-06	
340	9.800000e-01	-2.32537e-06	
341	9.900000e-01	-2.34125e-06	
342	1.000000e+00	-2.35721e-06	
343	1.010000e+00	-2.37324e-06	
344	1.020000e+00	-2.38934e-06	
345	1.030000e+00	-2.40551e-06	
346	1.040000e+00	-2.42175e-06	
347	1.050000e+00	-2.43806e-06	
348	1.060000e+00	-2.45445e-06	
349	1.070000e+00	-2.47090e-06	
350	1.080000e+00	-2.48743e-06	
351	1.090000e+00	-2.50404e-06	
352	1.100000e+00	-2.52071e-06	
353	1.110000e+00	-2.53746e-06	
354	1.120000e+00	-2.55429e-06	
355	1.130000e+00	-2.57119e-06	
356	1.140000e+00	-2.58816e-06	
357	1.150000e+00	-2.60521e-06	
358	1.160000e+00	-2.62234e-06	
359	1.170000e+00	-2.63954e-06	
360	1.180000e+00	-2.65682e-06	
361	1.190000e+00	-2.67418e-06	
362	1.200000e+00	-2.69162e-06	
363	0.000000e+00	2.215571e-16	
364	1.000000e-02	-1.06854e-06	
365	2.000000e-02	-2.02050e-06	
366	3.000000e-02	-2.85948e-06	
367	4.000000e-02	-3.58967e-06	
368	5.000000e-02	-4.21608e-06	
369	6.000000e-02	-4.74496e-06	
370	7.000000e-02	-5.18421e-06	
371	8.000000e-02	-5.54357e-06	
372	9.000000e-02	-5.83453e-06	
373	1.000000e-01	-6.06961e-06	
374	1.100000e-01	-6.26115e-06	
375	1.200000e-01	-6.42013e-06	
376	1.300000e-01	-6.55542e-06	
377	1.400000e-01	-6.67372e-06	
378	1.500000e-01	-6.77979e-06	
379	1.600000e-01	-6.87696e-06	
380	1.700000e-01	-6.96751e-06	
381	1.800000e-01	-7.05302e-06	
382	1.900000e-01	-7.13461e-06	
383	2.000000e-01	-7.21305e-06	
384	2.100000e-01	-7.28892e-06	
385	2.200000e-01	-7.36263e-06	
386	2.300000e-01	-7.43451e-06	
387	2.400000e-01	-7.50481e-06	
388	2.500000e-01	-7.57372e-06	
389	2.600000e-01	-7.64140e-06	
390	2.700000e-01	-7.70799e-06	
391	2.800000e-01	-7.77358e-06	
392	2.900000e-01	-7.83827e-06	
393	3.000000e-01	-7.90215e-06	
394	3.100000e-01	-7.96527e-06	
395	3.200000e-01	-8.02770e-06	
396	3.300000e-01	-8.08949e-06	
397	3.400000e-01	-8.15070e-06	
398	3.500000e-01	-8.21135e-06	
399	3.600000e-01	-8.27150e-06	
400	3.700000e-01	-8.33117e-06	
401	3.800000e-01	-8.39039e-06	
402	3.900000e-01	-8.44921e-06	
403	4.000000e-01	-8.50764e-06	
404	4.100000e-01	-8.56571e-06	
405	4.200000e-01	-8.62344e-06	
406	4.300000e-01	-8.68085e-06	
407	4.400000e-01	-8.73797e-06	
408	4.500000e-01	-8.79481e-06	
409	4.600000e-01	-8.85139e-06	
410	4.700000e-01	-8.90773e-06	
411	4.800000e-01	-8.96384e-06	
412	4.900000e-01	-9.01973e-06	
413	5.000000e-01	-9.07543e-06	
414	5.100000e-01	-9.13094e-06	
415	5.200000e-01	-9.18627e-06	
416	5.300000e-01	-9.24144e-06	
417	5.400000e-01	-9.29646e-06	
418	5.500000e-01	-9.35134e-06	
419	5.600000e-01	-9.40608e-06	
420	5.700000e-01	-9.46070e-06	
421	5.800000e-01	-9.51521e-06	
422	5.900000e-01	-9.56961e-06	
423	6.000000e-01	-9.62391e-06	
424	6.100000e-01	-9.67812e-06	
425	6.200000e-01	-9.73225e-06	
426	6.300000e-01	-9.78631e-06	
427	6.400000e-01	-9.84029e-06	
428	6.500000e-01	-9.89421e-06	
429	6.600000e-01	-9.94808e-06	
430	6.700000e-01	-1.00019e-05	
431	6.800000e-01	-1.00557e-05	
432	6.900000e-01	-1.01094e-05	
433	7.000000e-01	-1.01631e-05	
434	7.100000e-01	-1.02167e-05	
435	7.200000e-01	-1.02704e-05	
436	7.300000e-01	-1.03240e-05	
437	7.400000e-01	-1.03776e-05	
438	7.500000e-01	-1.04311e-05	
439	7.600000e-01	-1.04847e-05	
440	7.700000e-01	-1.05383e-05	
441	7.800000e-01	-1.05918e-05	
442	7.900000e-01	-1.06454e-05	
443	8.000000e-01	-1.06990e-05	
444	8.100000e-01	-1.07525e-05	
445	8.200000e-01	-1.08061e-05	
446	8.300000e-01	-1.08597e-05	
447	8.400000e-01	-1.09133e-05	
448	8.500000e-01	-1.09670e-05	
449	8.600000e-01	-1.10206e-05	
450	8.700000e-01	-1.10743e-05	
451	8.800000e-01	-1.11280e-05	
452	8.900000e-01	-1.11818e-05	
453	9.000000e-01	-1.12355e-05	
454	9.100000e-01	-1.12893e-05	
455	9.200000e-01	-1.13432e-05	
456	9.300000e-01	-1.13971e-05	
457	9.400000e-01	-1.14510e-05	
458	9.500000e-01	-1.15049e-05	
459	9.600000e-01	-1.15590e-05	
460	9.700000e-01	-1.16130e-05	
461	9.800000e-01	-1.16671e-05	
462	9.900000e-01	-1.17213e-05	
463	1.000000e+00	-1.17755e-05	
464	1.010000e+00	-1.18297e-05	
465	1.020000e+00	-1.18840e-05	
466	1.030000e+00	-1.19384e-05	
467	1.040000e+00	-1.19928e-05	
468	1.050000e+00	-1.20473e-05	
469	1.060000e+00	-1.21018e-05	
470	1.070000e+00	-1.21564e-05	
471	1.080000e+00	-1.22111e-05	
472	1.090000e+00	-1.22658e-05	
473	1.100000e+00	-1.23206e-05	
474	1.110000e+00	-1.23755e-05	
475	1.120000e+00	-1.24304e-05	
476	1.130000e+00	-1.24854e-05	
477	1.140000e+00	-1.25405e-05	
478	1.150000e+00	-1.25956e-05	
479	1.160000e+00	-1.26508e-05	
480	1.170000e+00	-1.27061e-05	
481	1.180000e+00	-1.27615e-05	
482	1.190000e+00	-1.28169e-05	
483	1.200000e+00	-1.28724e-05	
484	0.000000e+00	5.380166e-16	
485	1.000000e-02	-2.26948e-06	
486	2.000000e-02	-4.38309e-06	
487	3.000000e-02	-6.34429e-06	
488	4.000000e-02	-8.15655e-06	
489	5.000000e-02	-9.82345e-06	
490	6.000000e-02	-1.13487e-05	
491	7.000000e-02	-1.27364e-05	
492	8.000000e-02	-1.39907e-05	
493	9.000000e-02	-1.51166e-05	
494	1.000000e-01	-1.61196e-05	
495	1.100000e-01	-1.70063e-05	
496	1.200000e-01	-1.77843e-05	
497	1.300000e-01	-1.84626e-05	
498	1.400000e-01	-1.90515e-05	
499	1.500000e-01	-1.95622e-05	
500	1.600000e-01	-2.00064e-05	
501	1.700000e-01	-2.03956e-05	
502	1.800000e-01	-2.07403e-05	
503	1.900000e-01	-2.10496e-05	
504	2.000000e-01	-2.13307e-05	
505	2.100000e-01	-2.15898e-05	
506	2.200000e-01	-2.18311e-05	
507	2.300000e-01	-2.20582e-05	
508	2.400000e-01	-2.22737e-05	
509	2.500000e-01	-2.24795e-05	
510	2.600000e-01	-2.26770e-05	
511	2.700000e-01	-2.28676e-05	
512	2.800000e-01	-2.30520e-05	
513	2.900000e-01	-2.32310e-05	
514	3.000000e-01	-2.34052e-05	
515	3.100000e-01	-2.35750e-05	
516	3.200000e-01	-2.37409e-05	
517	3.300000e-01	-2.39032e-05	
518	3.400000e-01	-2.40621e-05	
519	3.500000e-01	-2.42180e-05	
520	3.600000e-01	-2.43711e-05	
521	3.700000e-01	-2.45215e-05	
522	3.800000e-01	-2.46694e-05	
523	3.900000e-01	-2.48149e-05	
524	4.000000e-01	-2.49583e-05	
525	4.100000e-01	-2.50997e-05	
526	4.200000e-01	-2.52391e-05	
527	4.300000e-01	-2.53766e-05	
528	4.400000e-01	-2.55125e-05	
529	4.500000e-01	-2.56466e-05	
530	4.600000e-01	-2.57792e-05	
531	4.700000e-01	-2.59104e-05	
532	4.800000e-01	-2.60401e-05	
533	4.900000e-01	-2.61685e-05	
534	5.000000e-01	-2.62956e-05	
535	5.100000e-01	-2.64214e-05	
536	5.200000e-01	-2.65461e-05	
537	5.300000e-01	-2.66697e-05	
538	5.400000e-01	-2.67922e-05	
539	5.500000e-01	-2.69138e-05	
540	5.600000e-01	-2.70343e-05	
541	5.700000e-01	-2.71539e-05	
542	5.800000e-01	-2.72726e-05	
543	5.900000e-01	-2.73905e-05	
544	6.000000e-01	-2.75075e-05	
545	6.100000e-01	-2.76238e-05	
546	6.200000e-01	-2.77393e-05	
547	6.300000e-01	-2.78540e-05	
548	6.400000e-01	-2.79681e-05	
549	6.500000e-01	-2.80815e-05	
550	6.600000e-01	-2.81943e-05	
551	6.700000e-01	-2.83065e-05	
552	6.800000e-01	-2.84180e-05	
553	6.900000e-01	-2.85290e-05	
554	7.000000e-01	-2.86395e-05	
555	7.100000e-01	-2.87494e-05	
556	7.200000e-01	-2.88588e-05	
557	7.300000e-01	-2.89677e-05	
558	7.400000e-01	-2.90762e-05	
559	7.500000e-01	-2.91842e-05	
560	7.600000e-01	-2.92918e-05	
561	7.700000e-01	-2.93989e-05	
562	7.800000e-01	-2.95057e-05	
563	7.900000e-01	-2.96120e-05	
564	8.000000e-01	-2.97180e-05	
565	8.100000e-01	-2.98236e-05	
566	8.200000e-01	-2.99289e-05	
567	8.300000e-01	-3.00338e-05	
568	8.400000e-01	-3.01384e-05	
569	8.500000e-01	-3.02427e-05	
570	8.600000e-01	-3.03467e-05	
571	8.700000e-01	-3.04504e-05	
572	8.800000e-01	-3.05538e-05	
573	8.900000e-01	-3.06569e-05	
574	9.000000e-01	-3.07598e-05	
575	9.100000e-01	-3.08625e-05	
576	9.200000e-01	-3.09649e-05	
577	9.300000e-01	-3.10670e-05	
578	9.400000e-01	-3.11690e-05	
579	9.500000e-01	-3.12707e-05	
580	9.600000e-01	-3.13722e-05	
581	9.700000e-01	-3.14735e-05	
582	9.800000e-01	-3.15746e-05	
583	9.900000e-01	-3.16755e-05	
584	1.000000e+00	-3.17762e-05	
585	1.010000e+00	-3.18768e-05	
586	1.020000e+00	-3.19772e-05	
587	1.030000e+00	-3.20774e-05	
588	1.040000e+00	-3.21775e-05	
589	1.050000e+00	-3.22774e-05	
590	1.060000e+00	-3.23772e-05	
591	1.070000e+00	-3.24769e-05	
592	1.080000e+00	-3.25764e-05	
593	1.090000e+00	-3.26758e-05	
594	1.100000e+00	-3.27750e-05	
595	1.110000e+00	-3.28742e-05	
596	1.120000e+00	-3.29732e-05	
597	1.130000e+00	-3.30721e-05	
598	1.140000e+00	-3.31709e-05	
599	1.150000e+00	-3.32696e-05	
600	1.160000e+00	-3.33682e-05	
601	1.170000e+00	-3.34668e-05	
602	1.180000e+00	-3.35652e-05	
603	1.190000e+00	-3.36636e-05	
604	1.200000e+00	-3.37618e-05	
605	0.000000e+00	1.193720e-15	
606	1.000000e-02	-3.51153e-06	
607	2.000000e-02	-6.84480e-06	
608	3.000000e-02	-1.00033e-05	
609	4.000000e-02	-1.29907e-05	
610	5.000000e-02	-1.58102e-05	
611	6.000000e-02	-1.84654e-05	
612	7.000000e-02	-2.09596e-05	
613	8.000000e-02	-2.32964e-05	
614	9.000000e-02	-2.54792e-05	
615	1.000000e-01	-2.75116e-05	
616	1.100000e-01	-2.93974e-05	
617	1.200000e-01	-3.11405e-05	
618	1.300000e-01	-3.27453e-05	
619	1.400000e-01	-3.42163e-05	
620	1.500000e-01	-3.55589e-05	
621	1.600000e-01	-3.67790e-05	
622	1.700000e-01	-3.78832e-05	
623	1.800000e-01	-3.88794e-05	
624	1.900000e-01	-3.97760e-05	
625	2.000000e-01	-4.05824e-05	
626	2.100000e-01	-4.13088e-05	
627	2.200000e-01	-4.19651e-05	
628	2.300000e-01	-4.25613e-05	
629	2.400000e-01	-4.31065e-05	
630	2.500000e-01	-4.36089e-05	
631	2.600000e-01	-4.40755e-05	
632	2.700000e-01	-4.45121e-05	
633	2.800000e-01	-4.49235e-05	
634	2.900000e-01	-4.53134e-05	
635	3.000000e-01	-4.56850e-05	
636	3.100000e-01	-4.60408e-05	
637	3.200000e-01	-4.63826e-05	
638	3.300000e-01	-4.67120e-05	
639	3.400000e-01	-4.70305e-05	
640	3.500000e-01	-4.73390e-05	
641	3.600000e-01	-4.76385e-05	
642	3.700000e-01	-4.79297e-05	
643	3.800000e-01	-4.82134e-05	
644	3.900000e-01	-4.84900e-05	
645	4.000000e-01	-4.87600e-05	
646	4.100000e-01	-4.90240e-05	
647	4.200000e-01	-4.92823e-05	
648	4.300000e-01	-4.95352e-05	
649	4.400000e-01	-4.97831e-05	
650	4.500000e-01	-5.00262e-05	
651	4.600000e-01	-5.02649e-05	
652	4.700000e-01	-5.04993e-05	
653	4.800000e-01	-5.07297e-05	
654	4.900000e-01	-5.09562e-05	
655	5.000000e-01	-5.11792e-05	
656	5.100000e-01	-5.13986e-05	
657	5.200000e-01	-5.16148e-05	
658	5.300000e-01	-5.18279e-05	
659	5.400000e-01	-5.20380e-05	
660	5.500000e-01	-5.22452e-05	
661	5.600000e-01	-5.24496e-05	
662	5.700000e-01	-5.26515e-05	
663	5.800000e-01	-5.28508e-05	
664	5.900000e-01	-5.30477e-05	
665	6.000000e-01	-5.32423e-05	
666	6.100000e-01	-5.34347e-05	
667	6.200000e-01	-5.36250e-05	
668	6.300000e-01	-5.38133e-05	
669	6.400000e-01	-5.39996e-05	
670	6.500000e-01	-5.41839e-05	
671	6.600000e-01	-5.43665e-05	
672	6.700000e-01	-5.45474e-05	
673	6.800000e-01	-5.47265e-05	
674	6.900000e-01	-5.49040e-05	
675	7.000000e-01	-5.50800e-05	
676	7.100000e-01	-5.52545e-05	
677	7.200000e-01	-5.54275e-05	
678	7.300000e-01	-5.55991e-05	
679	7.400000e-01	-5.57693e-05	
680	7.500000e-01	-5.59383e-05	
681	7.600000e-01	-5.61059e-05	
682	7.700000e-01	-5.62724e-05	
683	7.800000e-01	-5.64377e-05	
684	7.900000e-01	-5.66018e-05	
685	8.000000e-01	-5.67648e-05	
686	8.100000e-01	-5.69268e-05	
687	8.200000e-01	-5.70877e-05	
688	8.300000e-01	-5.72476e-05	
689	8.400000e-01	-5.74066e-05	
690	8.500000e-01	-5.75646e-05	
691	8.600000e-01	-5.77217e-05	
692	8.700000e-01	-5.78779e-05	
693	8.800000e-01	-5.80333e-05	
694	8.900000e-01	-5.81878e-05	
695	9.000000e-01	-5.83415e-05	
696	9.100000e-01	-5.84945e-05	
697	9.200000e-01	-5.86466e-05	
698	9.300000e-01	-5.87981e-05	
699	9.400000e-01	-5.89488e-05	
700	9.500000e-01	-5.90989e-05	
701	9.600000e-01	-5.92482e-05	
702	9.700000e-01	-5.93970e-05	
703	9.800000e-01	-5.95450e-05	
704	9.900000e-01	-5.96925e-05	
705	1.000000e+00	-5.98394e-05	
706	1.010000e+00	-5.99856e-05	
707	1.020000e+00	-6.01314e-05	
708	1.030000e+00	-6.02765e-05	
709	1.040000e+00	-6.04212e-05	
710	1.050000e+00	-6.05653e-05	
711	1.060000e+00	-6.07089e-05	
712	1.070000e+00	-6.08520e-05	
713	1.080000e+00	-6.09946e-05	
714	1.090000e+00	-6.11368e-05	
715	1.100000e+00	-6.12785e-05	
716	1.110000e+00	-6.14197e-05	
717	1.120000e+00	-6.15606e-05	
718	1.130000e+00	-6.17010e-05	
719	1.140000e+00	-6.18410e-05	
720	1.150000e+00	-6.19806e-05	
721	1.160000e+00	-6.21198e-05	
722	1.170000e+00	-6.22587e-05	
723	1.180000e+00	-6.23972e-05	
724	1.190000e+00	-6.25353e-05	
725	1.200000e+00	-6.26731e-05	
726	0.000000e+00	2.481328e-15	
727	1.000000e-02	-4.67188e-06	
728	2.000000e-02	-9.15181e-06	
729	3.000000e-02	-1.34434e-05	
730	4.000000e-02	-1.75501e-05	
731	5.000000e-02	-2.14755e-05	
732	6.000000e-02	-2.52228e-05	
733	7.000000e-02	-2.87954e-05	
734	8.000000e-02	-3.21967e-05	
735	9.000000e-02	-3.54298e-05	
736	1.000000e-01	-3.84980e-05	
737	1.100000e-01	-4.14046e-05	
738	1.200000e-01	-4.41527e-05	
739	1.300000e-01	-4.67456e-05	
740	1.400000e-01	-4.91868e-05	
741	1.500000e-01	-5.14795e-05	
742	1.600000e-01	-5.36275e-05	
743	1.700000e-01	-5.56345e-05	
744	1.800000e-01	-5.75045e-05	
745	1.900000e-01	-5.92420e-05	
746	2.000000e-01	-6.08519e-05	
747	2.100000e-01	-6.23395e-05	
748	2.200000e-01	-6.37109e-05	
749	2.300000e-01	-6.49727e-05	
750	2.400000e-01	-6.61325e-05	
751	2.500000e-01	-6.71982e-05	
752	2.600000e-01	-6.81783e-05	
753	2.700000e-01	-6.90816e-05	
754	2.800000e-01	-6.99167e-05	
755	2.900000e-01	-7.06920e-05	
756	3.000000e-01	-7.14150e-05	
757	3.100000e-01	-7.20928e-05	
758	3.200000e-01	-7.27313e-05	
759	3.300000e-01	-7.33356e-05	
760	3.400000e-01	-7.39101e-05	
761	3.500000e-01	-7.44583e-05	
762	3.600000e-01	-7.49833e-05	
763	3.700000e-01	-7.54876e-05	
764	3.800000e-01	-7.59733e-05	
765	3.900000e-01	-7.64421e-05	
766	4.000000e-01	-7.68956e-05	
767	4.100000e-01	-7.73350e-05	
768	4.200000e-01	-7.77614e-05	
769	4.300000e-01	-7.81759e-05	
770	4.400000e-01	-7.85791e-05	
771	4.500000e-01	-7.89719e-05	
772	4.600000e-01	-7.93549e-05	
773	4.700000e-01	-7.97288e-05	
774	4.800000e-01	-8.00940e-05	
775	4.900000e-01	-8.04511e-05	
776	5.000000e-01	-8.08005e-05	
777	5.100000e-01	-8.11426e-05	
778	5.200000e-01	-8.14778e-05	
779	5.300000e-01	-8.18065e-05	
780	5.400000e-01	-8.21289e-05	
781	5.500000e-01	-8.24453e-05	
782	5.600000e-01	-8.27561e-05	
783	5.700000e-01	-8.30615e-05	
784	5.800000e-01	-8.33618e-05	
785	5.900000e-01	-8.36571e-05	
786	6.000000e-01	-8.39476e-05	
787	6.100000e-01	-8.42337e-05	
788	6.200000e-01	-8.45155e-05	
789	6.300000e-01	-8.47930e-05	
790	6.400000e-01	-8.50667e-05	
791	6.500000e-01	-8.53364e-05	
792	6.600000e-01	-8.56026e-05	
793	6.700000e-01	-8.58651e-05	
794	6.800000e-01	-8.61243e-05	
795	6.900000e-01	-8.63802e-05	
796	7.000000e-01	-8.66330e-05	
797	7.100000e-01	-8.68828e-05	
798	7.200000e-01	-8.71296e-05	
799	7.300000e-01	-8.73736e-05	
800	7.400000e-01	-8.76149e-05	
801	7.500000e-01	-8.78536e-05	
802	7.600000e-01	-8.80897e-05	
803	7.700000e-01	-8.83234e-05	
804	7.800000e-01	-8.85547e-05	
805	7.900000e-01	-8.87838e-05	
806	8.000000e-01	-8.90106e-05	
807	8.100000e-01	-8.92353e-05	
808	8.200000e-01	-8.94580e-05	
809	8.300000e-01	-8.96786e-05	
810	8.400000e-01	-8.98974e-05	
811	8.500000e-01	-9.01142e-05	
812	8.600000e-01	-9.03292e-05	
813	8.700000e-01	-9.05425e-05	
814	8.800000e-01	-9.07540e-05	
815	8.900000e-01	-9.09639e-05	
816	9.000000e-01	-9.11722e-05	
817	9.100000e-01	-9.13790e-05	
818	9.200000e-01	-9.15842e-05	
819	9.300000e-01	-9.17880e-05	
820	9.400000e-01	-9.19903e-05	
821	9.500000e-01	-9.21912e-05	
822	9.600000e-01	-9.23908e-05	
823	9.700000e-01	-9.25891e-05	
824	9.800000e-01	-9.27862e-05	
825	9.900000e-01	-9.29819e-05	
826	1.000000e+00	-9.31765e-05	
827	1.010000e+00	-9.33700e-05	
828	1.020000e+00	-9.35622e-05	
829	1.030000e+00	-9.37534e-05	
830	1.040000e+00	-9.39435e-05	
831	1.050000e+00	-9.41326e-05	
832	1.060000e+00	-9.43206e-05	
833	1.070000e+00	-9.45076e-05	
834	1.080000e+00	-9.46937e-05	
835	1.090000e+00	-9.48788e-05	
836	1.100000e+00	-9.50631e-05	
837	1.110000e+00	-9.52464e-05	
838	1.120000e+00	-9.54288e-05	
839	1.130000e+00	-9.56104e-05	
840	1.140000e+00	-9.57912e-05	
841	1.150000e+00	-9.59712e-05	
842	1.160000e+00	-9.61503e-05	
843	1.170000e+00	-9.63287e-05	
844	1.180000e+00	-9.65064e-05	
845	1.190000e+00	-9.66833e-05	
846	1.200000e+00	-9.68595e-05	
847	0.000000e+00	4.920616e-15	
848	1.000000e-02	-5.72748e-06	
849	2.000000e-02	-1.12547e-05	
850	3.000000e-02	-1.65852e-05	
851	4.000000e-02	-2.17224e-05	
852	5.000000e-02	-2.66698e-05	
853	6.000000e-02	-3.14307e-05	
854	7.000000e-02	-3.60084e-05	
855	8.000000e-02	-4.04061e-05	
856	9.000000e-02	-4.46269e-05	
857	1.000000e-01	-4.86739e-05	
858	1.100000e-01	-5.25503e-05	
859	1.200000e-01	-5.62590e-05	
860	1.300000e-01	-5.98030e-05	
861	1.400000e-01	-6.31854e-05	
862	1.500000e-01	-6.64090e-05	
863	1.600000e-01	-6.94770e-05	
864	1.700000e-01	-7.23922e-05	
865	1.800000e-01	-7.51578e-05	
866	1.900000e-01	-7.77769e-05	
867	2.000000e-01	-8.02527e-05	
868	2.100000e-01	-8.25886e-05	
869	2.200000e-01	-8.47882e-05	
870	2.300000e-01	-8.68554e-05	
871	2.400000e-01	-8.87942e-05	
872	2.500000e-01	-9.06092e-05	
873	2.600000e-01	-9.23054e-05	
874	2.700000e-01	-9.38882e-05	
875	2.800000e-01	-9.53638e-05	
876	2.900000e-01	-9.67385e-05	
877	3.000000e-01	-9.80195e-05	
878	3.100000e-01	-9.92141e-05	
879	3.200000e-01	-1.00330e-04	
880	3.300000e-01	-1.01374e-04	
881	3.400000e-01	-1.02355e-04	
882	3.500000e-01	-1.03278e-04	
883	3.600000e-01	-1.04150e-04	
884	3.700000e-01	-1.04977e-04	
885	3.800000e-01	-1.05763e-04	
886	3.900000e-01	-1.06514e-04	
887	4.000000e-01	-1.07232e-04	
888	4.100000e-01	-1.07921e-04	
889	4.200000e-01	-1.08584e-04	
890	4.300000e-01	-1.09223e-04	
891	4.400000e-01	-1.09840e-04	
892	4.500000e-01	-1.10436e-04	
893	4.600000e-01	-1.11014e-04	
894	4.700000e-01	-1.11575e-04	
895	4.800000e-01	-1.12119e-04	
896	4.900000e-01	-1.12648e-04	
897	5.000000e-01	-1.13163e-04	
898	5.100000e-01	-1.13665e-04	
899	5.200000e-01	-1.14154e-04	
900	5.300000e-01	-1.14631e-04	
901	5.400000e-01	-1.15097e-04	
902	5.500000e-01	-1.15552e-04	
903	5.600000e-01	-1.15997e-04	
904	5.700000e-01	-1.16433e-04	
905	5.800000e-01	-1.16859e-04	
906	5.900000e-01	-1.17277e-04	
907	6.000000e-01	-1.17686e-04	
908	6.100000e-01	-1.18088e-04	
909	6.200000e-01	-1.18482e-04	
910	6.300000e-01	-1.18869e-04	
911	6.400000e-01	-1.19249e-04	
912	6.500000e-01	-1.19622e-04	
913	6.600000e-01	-1.19989e-04	
914	6.700000e-01	-1.20350e-04	
915	6.800000e-01	-1.20705e-04	
916	6.900000e-01	-1.21054e-04	
917	7.000000e-01	-1.21398e-04	
918	7.100000e-01	-1.21737e-04	
919	7.200000e-01	-1.22071e-04	
920	7.300000e-01	-1.22400e-04	
921	7.400000e-01	-1.22724e-04	
922	7.500000e-01	-1.23044e-04	
923	7.600000e-01	-1.23359e-04	
924	7.700000e-01	-1.23671e-04	
925	7.800000e-01	-1.23978e-04	
926	7.900000e-01	-1.24282e-04	
927	8.000000e-01	-1.24582e-04	
928	8.100000e-01	-1.24878e-04	
929	8.200000e-01	-1.25171e-04	
930	8.300000e-01	-1.25460e-04	
931	8.400000e-01	-1.25746e-04	
932	8.500000e-01	-1.26029e-04	
933	8.600000e-01	-1.26309e-04	
934	8.700000e-01	-1.26586e-04	
935	8.800000e-01	-1.26860e-04	
936	8.900000e-01	-1.27132e-04	
937	9.000000e-01	-1.27401e-04	
938	9.100000e-01	-1.27667e-04	
939	9.200000e-01	-1.27930e-04	
940	9.300000e-01	-1.28191e-04	
941	9.400000e-01	-1.28450e-04	
942	9.500000e-01	-1.28706e-04	
943	9.600000e-01	-1.28961e-04	
944	9.700000e-01	-1.29213e-04	
945	9.800000e-01	-1.29463e-04	
946	9.900000e-01	-1.29710e-04	
947	1.000000e+00	-1.29956e-04	
948	1.010000e+00	-1.30200e-04	
949	1.020000e+00	-1.30442e-04	
950	1.030000e+00	-1.30682e-04	
951	1.040000e+00	-1.30921e-04	
952	1.050000e+00	-1.31157e-04	
953	1.060000e+00	-1.31392e-04	
954	1.070000e+00	-1.31626e-04	
955	1.080000e+00	-1.31857e-04	
956	1.090000e+00	-1.32087e-04	
957	1.100000e+00	-1.32316e-04	
958	1.110000e+00	-1.32543e-04	
959	1.120000e+00	-1.32769e-04	
960	1.130000e+00	-1.32993e-04	
961	1.140000e+00	-1.33216e-04	
962	1.150000e+00	-1.33437e-04	
963	1.160000e+00	-1.33658e-04	
964	1.170000e+00	-1.33877e-04	
965	1.180000e+00	-1.34094e-04	
966	1.190000e+00	-1.34311e-04	
967	1.200000e+00	-1.34526e-04	
968	0.000000e+00	9.422639e-15	
969	1.000000e-02	-6.67563e-06	
970	2.000000e-02	-1.31464e-05	
971	3.000000e-02	-1.94159e-05	
972	4.000000e-02	-2.54874e-05	
973	5.000000e-02	-3.13642e-05	
974	6.000000e-02	-3.70495e-05	
975	7.000000e-02	-4.25467e-05	
976	8.000000e-02	-4.78588e-05	
977	9.000000e-02	-5.29888e-05	
978	1.000000e-01	-5.79397e-05	
979	1.100000e-01	-6.27146e-05	
980	1.200000e-01	-6.73163e-05	
981	1.300000e-01	-7.17477e-05	
982	1.400000e-01	-7.60115e-05	
983	1.500000e-01	-8.01107e-05	
984	1.600000e-01	-8.40478e-05	
985	1.700000e-01	-8.78258e-05	
986	1.800000e-01	-9.14472e-05	
987	1.900000e-01	-9.49149e-05	
988	2.000000e-01	-9.82314e-05	
989	2.100000e-01	-1.01400e-04	
990	2.200000e-01	-1.04422e-04	
991	2.300000e-01	-1.07302e-04	
992	2.400000e-01	-1.10042e-04	
993	2.500000e-01	-1.12646e-04	
994	2.600000e-01	-1.15116e-04	
995	2.700000e-01	-1.17455e-04	
996	2.800000e-01	-1.19668e-04	
997	2.900000e-01	-1.21759e-04	
998	3.000000e-01	-1.23731e-04	
999	3.100000e-01	-1.25589e-04	
1000	3.200000e-01	-1.27338e-04	
1001	3.300000e-01	-1.28984e-04	
1002	3.400000e-01	-1.30532e-04	
1003	3.500000e-01	-1.31989e-04	
1004	3.600000e-01	-1.33361e-04	
1005	3.700000e-01	-1.34655e-04	
1006	3.800000e-01	-1.35877e-04	
1007	3.900000e-01	-1.37033e-04	
1008	4.000000e-01	-1.38130e-04	
1009	4.100000e-01	-1.39173e-04	
1010	4.200000e-01	-1.40167e-04	
1011	4.300000e-01	-1.41117e-04	
1012	4.400000e-01	-1.42027e-04	
1013	4.500000e-01	-1.42900e-04	
1014	4.600000e-01	-1.43740e-04	
1015	4.700000e-01	-1.44549e-04	
1016	4.800000e-01	-1.45330e-04	
1017	4.900000e-01	-1.46084e-04	
1018	5.000000e-01	-1.46814e-04	
1019	5.100000e-01	-1.47522e-04	
1020	5.200000e-01	-1.48209e-04	
1021	5.300000e-01	-1.48875e-04	
1022	5.400000e-01	-1.49523e-04	
1023	5.500000e-01	-1.50154e-04	
1024	5.600000e-01	-1.50768e-04	
1025	5.700000e-01	-1.51366e-04	
1026	5.800000e-01	-1.51950e-04	
1027	5.900000e-01	-1.52520e-04	
1028	6.000000e-01	-1.53076e-04	
1029	6.100000e-01	-1.53619e-04	
1030	6.200000e-01	-1.54151e-04	
1031	6.300000e-01	-1.54671e-04	
1032	6.400000e-01	-1.55180e-04	
1033	6.500000e-01	-1.55678e-04	
1034	6.600000e-01	-1.56167e-04	
1035	6.700000e-01	-1.56646e-04	
1036	6.800000e-01	-1.57116e-04	
1037	6.900000e-01	-1.57576e-04	
1038	7.000000e-01	-1.58029e-04	
1039	7.100000e-01	-1.58473e-04	
1040	7.200000e-01	-1.58910e-04	
1041	7.300000e-01	-1.59339e-04	
1042	7.400000e-01	-1.59761e-04	
1043	7.500000e-01	-1.60176e-04	
1044	7.600000e-01	-1.60585e-04	
1045	7.700000e-01	-1.60987e-04	
1046	7.800000e-01	-1.61382e-04	
1047	7.900000e-01	-1.61772e-04	
1048	8.000000e-01	-1.62156e-04	
1049	8.100000e-01	-1.62535e-04	
1050	8.200000e-01	-1.62908e-04	
1051	8.300000e-01	-1.63276e-04	
1052	8.400000e-01	-1.63640e-04	
1053	8.500000e-01	-1.63998e-04	
1054	8.600000e-01	-1.64352e-04	
1055	8.700000e-01	-1.64701e-04	
1056	8.800000e-01	-1.65046e-04	
1057	8.900000e-01	-1.65386e-04	
1058	9.000000e-01	-1.65723e-04	
1059	9.100000e-01	-1.66055e-04	
1060	9.200000e-01	-1.66384e-04	
1061	9.300000e-01	-1.66709e-04	
1062	9.400000e-01	-1.67031e-04	
1063	9.500000e-01	-1.67349e-04	
1064	9.600000e-01	-1.67663e-04	
1065	9.700000e-01	-1.67975e-04	
1066	9.800000e-01	-1.68283e-04	
1067	9.900000e-01	-1.68588e-04	
1068	1.000000e+00	-1.68890e-04	
1069	1.010000e+00	-1.69189e-04	
1070	1.020000e+00	-1.69485e-04	
1071	1.030000e+00	-1.69778e-04	
1072	1.040000e+00	-1.70069e-04	
1073	1.050000e+00	-1.70357e-04	
1074	1.060000e+00	-1.70643e-04	
1075	1.070000e+00	-1.70926e-04	
1076	1.080000e+00	-1.71207e-04	
1077	1.090000e+00	-1.71485e-04	
1078	1.100000e+00	-1.71762e-04	
1079	1.110000e+00	-1.72036e-04	
1080	1.120000e+00	-1.72307e-04	
1081	1.130000e+00	-1.72577e-04	
1082	1.140000e+00	-1.72845e-04	
1083	1.150000e+00	-1.73110e-04	
1084	1.160000e+00	-1.73374e-04	
1085	1.170000e+00	-1.73636e-04	
1086	1.180000e+00	-1.73896e-04	
1087	1.190000e+00	-1.74154e-04	
1088	1.200000e+00	-1.74410e-04	
1089	0.000000e+00	1.756511e-14	
1090	1.000000e-02	-7.51853e-06	
1091	2.000000e-02	-1.48306e-05	
1092	3.000000e-02	-2.19394e-05	
1093	4.000000e-02	-2.88484e-05	
1094	5.000000e-02	-3.55606e-05	
1095	6.000000e-02	-4.20791e-05	
1096	7.000000e-02	-4.84072e-05	
1097	8.000000e-02	-5.45477e-05	
1098	9.000000e-02	-6.05036e-05	
1099	1.000000e-01	-6.62778e-05	
1100	1.100000e-01	-7.18732e-05	
1101	1.200000e-01	-7.72924e-05	
1102	1.300000e-01	-8.25384e-05	
1103	1.400000e-01	-8.76136e-05	
1104	1.500000e-01	-9.25209e-05	
1105	1.600000e-01	-9.72627e-05	
1106	1.700000e-01	-1.01842e-04	
1107	1.800000e-01	-1.06261e-04	
1108	1.900000e-01	-1.10522e-04	
1109	2.000000e-01	-1.14627e-04	
1110	2.100000e-01	-1.18580e-04	
1111	2.200000e-01	-1.22383e-04	
1112	2.300000e-01	-1.26037e-04	
1113	2.400000e-01	-1.29547e-04	
1114	2.500000e-01	-1.32913e-04	
1115	2.600000e-01	-1.36139e-04	
1116	2.700000e-01	-1.39227e-04	
1117	2.800000e-01	-1.42180e-04	
1118	2.900000e-01	-1.45000e-04	
1119	3.000000e-01	-1.47691e-04	
1120	3.100000e-01	-1.50255e-04	
1121	3.200000e-01	-1.52696e-04	
1122	3.300000e-01	-1.55016e-04	
1123	3.400000e-01	-1.57220e-04	
1124	3.500000e-01	-1.59312e-04	
1125	3.600000e-01	-1.61295e-04	
1126	3.700000e-01	-1.63175e-04	
1127	3.800000e-01	-1.64956e-04	
1128	3.900000e-01	-1.66643e-04	
1129	4.000000e-01	-1.68243e-04	
1130	4.100000e-01	-1.69760e-04	
1131	4.200000e-01	-1.71201e-04	
1132	4.300000e-01	-1.72571e-04	
1133	4.400000e-01	-1.73876e-04	
1134	4.500000e-01	-1.75120e-04	
1135	4.600000e-01	-1.76309e-04	
1136	4.700000e-01	-1.77448e-04	
1137	4.800000e-01	-1.78540e-04	
1138	4.900000e-01	-1.79589e-04	
1139	5.000000e-01	-1.80599e-04	
1140	5.100000e-01	-1.81572e-04	
1141	5.200000e-01	-1.82512e-04	
1142	5.300000e-01	-1.83420e-04	
1143	5.400000e-01	-1.84298e-04	
1144	5.500000e-01	-1.85149e-04	
1145	5.600000e-01	-1.85975e-04	
1146	5.700000e-01	-1.86776e-04	
1147	5.800000e-01	-1.87554e-04	
1148	5.900000e-01	-1.88311e-04	
1149	6.000000e-01	-1.89048e-04	
1150	6.100000e-01	-1.89766e-04	
1151	6.200000e-01	-1.90465e-04	
1152	6.300000e-01	-1.91147e-04	
1153	6.400000e-01	-1.91812e-04	
1154	6.500000e-01	-1.92462e-04	
1155	6.600000e-01	-1.93097e-04	
1156	6.700000e-01	-1.93718e-04	
1157	6.800000e-01	-1.94325e-04	
1158	6.900000e-01	-1.94919e-04	
1159	7.000000e-01	-1.95500e-04	
1160	7.100000e-01	-1.96070e-04	
1161	7.200000e-01	-1.96628e-04	
1162	7.300000e-01	-1.97176e-04	
1163	7.400000e-01	-1.97712e-04	
1164	7.500000e-01	-1.98239e-04	
1165	7.600000e-01	-1.98756e-04	
1166	7.700000e-01	-1.99264e-04	
1167	7.800000e-01	-1.99763e-04	
1168	7.900000e-01	-2.00253e-04	
1169	8.000000e-01	-2.00735e-04	
1170	8.100000e-01	-2.01209e-04	
1171	8.200000e-01	-2.01675e-04	
1172	8.300000e-01	-2.02134e-04	
1173	8.400000e-01	-2.02585e-04	
1174	8.500000e-01	-2.03030e-04	
1175	8.600000e-01	-2.03468e-04	
1176	8.700000e-01	-2.03900e-04	
1177	8.800000e-01	-2.04325e-04	
1178	8.900000e-01	-2.04744e-04	
1179	9.000000e-01	-2.05158e-04	
1180	9.100000e-01	-2.05565e-04	
1181	9.200000e-01	-2.05968e-04	
1182	9.300000e-01	-2.06365e-04	
1183	9.400000e-01	-2.06757e-04	
1184	9.500000e-01	-2.07144e-04	
1185	9.600000e-01	-2.07526e-04	
1186	9.700000e-01	-2.07904e-04	
1187	9.800000e-01	-2.08277e-04	
1188	9.900000e-01	-2.08645e-04	
1189	1.000000e+00	-2.09010e-04	
1190	1.010000e+00	-2.09370e-04	
1191	1.020000e+00	-2.09726e-04	
1192	1.030000e+00	-2.10078e-04	
1193	1.040000e+00	-2.10427e-04	
1194	1.050000e+00	-2.10772e-04	
1195	1.060000e+00	-2.11113e-04	
1196	1.070000e+00	-2.11451e-04	
1197	1.080000e+00	-2.11786e-04	
1198	1.090000e+00	-2.12117e-04	
1199	1.100000e+00	-2.12445e-04	
1200	1.110000e+00	-2.12770e-04	
1201	1.120000e+00	-2.13091e-04	
1202	1.130000e+00	-2.13410e-04	
1203	1.140000e+00	-2.13726e-04	
1204	1.150000e+00	-2.14039e-04	
1205	1.160000e+00	-2.14350e-04	
1206	1.170000e+00	-2.14658e-04	
1207	1.180000e+00	-2.14963e-04	
1208	1.190000e+00	-2.15266e-04	
1209	1.200000e+00	-2.15566e-04	
1210	0.000000e+00	3.205386e-14	
1211	1.000000e-02	-8.26059e-06	
1212	2.000000e-02	-1.63153e-05	
1213	3.000000e-02	-2.41672e-05	
1214	4.000000e-02	-3.18194e-05	
1215	5.000000e-02	-3.92750e-05	
1216	6.000000e-02	-4.65369e-05	
1217	7.000000e-02	-5.36082e-05	
1218	8.000000e-02	-6.04915e-05	
1219	9.000000e-02	-6.71898e-05	
1220	1.000000e-01	-7.37057e-05	
1221	1.100000e-01	-8.00421e-05	
1222	1.200000e-01	-8.62015e-05	
1223	1.300000e-01	-9.21865e-05	
1224	1.400000e-01	-9.79998e-05	
1225	1.500000e-01	-1.03644e-04	
1226	1.600000e-01	-1.09121e-04	
1227	1.700000e-01	-1.14434e-04	
1228	1.800000e-01	-1.19585e-04	
1229	1.900000e-01	-1.24576e-04	
1230	2.000000e-01	-1.29411e-04	
1231	2.100000e-01	-1.34090e-04	
1232	2.200000e-01	-1.38616e-04	
1233	2.300000e-01	-1.42993e-04	
1234	2.400000e-01	-1.47221e-04	
1235	2.500000e-01	-1.51303e-04	
1236	2.600000e-01	-1.55241e-04	
1237	2.700000e-01	-1.59038e-04	
1238	2.800000e-01	-1.62696e-04	
1239	2.900000e-01	-1.66217e-04	
1240	3.000000e-01	-1.69603e-04	
1241	3.100000e-01	-1.72856e-04	
1242	3.200000e-01	-1.75980e-04	
1243	3.300000e-01	-1.78975e-04	
1244	3.400000e-01	-1.81846e-04	
1245	3.500000e-01	-1.84595e-04	
1246	3.600000e-01	-1.87223e-04	
1247	3.700000e-01	-1.89735e-04	
1248	3.800000e-01	-1.92134e-04	
1249	3.900000e-01	-1.94423e-04	
1250	4.000000e-01	-1.96605e-04	
1251	4.100000e-01	-1.98685e-04	
1252	4.200000e-01	-2.00666e-04	
1253	4.300000e-01	-2.02554e-04	
1254	4.400000e-01	-2.04353e-04	
1255	4.500000e-01	-2.06068e-04	
1256	4.600000e-01	-2.07703e-04	
1257	4.700000e-01	-2.09265e-04	
1258	4.800000e-01	-2.10757e-04	
1259	4.900000e-01	-2.12185e-04	
1260	5.000000e-01	-2.13553e-04	
1261	5.100000e-01	-2.14866e-04	
1262	5.200000e-01	-2.16127e-04	
1263	5.300000e-01	-2.17341e-04	
1264	5.400000e-01	-2.18510e-04	
1265	5.500000e-01	-2.19637e-04	
1266	5.600000e-01	-2.20727e-04	
1267	5.700000e-01	-2.21780e-04	
1268	5.800000e-01	-2.22799e-04	
1269	5.900000e-01	-2.23787e-04	
1270	6.000000e-01	-2.24745e-04	
1271	6.100000e-01	-2.25675e-04	
1272	6.200000e-01	-2.26579e-04	
1273	6.300000e-01	-2.27457e-04	
1274	6.400000e-01	-2.28312e-04	
1275	6.500000e-01	-2.29144e-04	
1276	6.600000e-01	-2.29955e-04	
1277	6.700000e-01	-2.30745e-04	
1278	6.800000e-01	-2.31516e-04	
1279	6.900000e-01	-2.32269e-04	
1280	7.000000e-01	-2.33004e-04	
1281	7.100000e-01	-2.33722e-04	
1282	7.200000e-01	-2.34425e-04	
1283	7.300000e-01	-2.35111e-04	
1284	7.400000e-01	-2.35783e-04	
1285	7.500000e-01	-2.36441e-04	
1286	7.600000e-01	-2.37086e-04	
1287	7.700000e-01	-2.37717e-04	
1288	7.800000e-01	-2.38336e-04	
1289	7.900000e-01	-2.38943e-04	
1290	8.000000e-01	-2.39538e-04	
1291	8.100000e-01	-2.40123e-04	
1292	8.200000e-01	-2.40697e-04	
1293	8.300000e-01	-2.41260e-04	
1294	8.400000e-01	-2.41814e-04	
1295	8.500000e-01	-2.42358e-04	
1296	8.600000e-01	-2.42892e-04	
1297	8.700000e-01	-2.43418e-04	
1298	8.800000e-01	-2.43936e-04	
1299	8.900000e-01	-2.44445e-04	
1300	9.000000e-01	-2.44946e-04	
1301	9.100000e-01	-2.45440e-04	
1302	9.200000e-01	-2.45925e-04	
1303	9.300000e-01	-2.46404e-04	
1304	9.400000e-01	-2.46876e-04	
1305	9.500000e-01	-2.47341e-04	
1306	9.600000e-01	-2.47800e-04	
1307	9.700000e-01	-2.48252e-04	
1308	9.800000e-01	-2.48698e-04	
1309	9.900000e-01	-2.49138e-04	
1310	1.000000e+00	-2.49572e-04	
1311	1.010000e+00	-2.50001e-04	
1312	1.020000e+00	-2.50424e-04	
1313	1.030000e+00	-2.50842e-04	
1314	1.040000e+00	-2.51255e-04	
1315	1.050000e+00	-2.51663e-04	
1316	1.060000e+00	-2.52066e-04	
1317	1.070000e+00	-2.52465e-04	
1318	1.080000e+00	-2.52859e-04	
1319	1.090000e+00	-2.53248e-04	
1320	1.100000e+00	-2.53633e-04	
1321	1.110000e+00	-2.54014e-04	
1322	1.120000e+00	-2.54391e-04	
1323	1.130000e+00	-2.54764e-04	
1324	1.140000e+00	-2.55133e-04	
1325	1.150000e+00	-2.55499e-04	
1326	1.160000e+00	-2.55860e-04	
1327	1.170000e+00	-2.56218e-04	
1328	1.180000e+00	-2.56573e-04	
1329	1.190000e+00	-2.56924e-04	
1330	1.200000e+00	-2.57272e-04	

CPU time since last call: 0.160 seconds.

Total CPU time: 0.160 seconds.

Current dynamic memory usage = 245760,
Dynamic memory limit = -18361312.

