Error: no data saved for A.C. Small signal analysis; analysis not run
doAnalyses: not found

run simulation(s) aborted

Circuit: * Resistive partition with different ratios for AC/DC (Print V(2))

	Node                                  Voltage
	----                                  -------
	----	-------
	V(2)                             5.000000e-01
	V(1)                             1.000000e+00

	Source	Current
	------	-------

	vin#branch                       -1.00000e-04

 Resistor models (Simple linear resistor)
      model                     R

        rsh                     0
     narrow                     0
      short                     0
        tc1                     0
        tc2                     0
       defw                 1e-05

 Resistor: Simple linear resistor
     device                    r2                    r1
      model                     R                     R
 resistance                  5000                  5000
         ac                 15000                     0
          i                0.0001                0.0001
          p                 5e-05                 5e-05

 Vsource: Independent voltage source
     device                   vin
         dc                     1
      acmag                     1
          i               -0.0001
          p                0.0001




