
No. of Data Rows : 41

No. of Data Rows : 1

Circuit: * Resistive partition with different ratios for AC/DC (Print V(2))

Doing analysis at TEMP = 300.150000 and TNOM = 300.150000
	Node                                  Voltage
	----                                  -------
	----	-------
	V(2)                             5.000000e-01
	V(1)                             1.000000e+00

	Source	Current
	------	-------

	vin#branch                       -1.00000e-04

 Resistor models (Simple linear resistor)
      model                     R

        rsh                     0
     narrow                     0
      short                     0
        tc1                     0
        tc2                     0
       defw                 1e-05
         kf                     0
         af                     0

 Resistor: Simple linear resistor
     device                    r2                    r1
      model                     R                     R
 resistance                  5000                  5000
         ac                 15000                  5000
      dtemp                     0                     0
      noisy                     1                     1
          i                0.0001                0.0001
          p                 5e-05                 5e-05

 Vsource: Independent voltage source
     device                   vin
         dc                     1
      acmag                     1
          i               -0.0001
          p                0.0001

       * Resistive partition with different ratios for AC/DC (Print V(2))
--------------------------------------------------------------------------------
Index   frequency                       v(2)                            
--------------------------------------------------------------------------------
0	1.000000e+00,	0.000000e+00	7.500000e-01,	0.000000e+00	
1	1.258925e+00,	0.000000e+00	7.500000e-01,	0.000000e+00	
2	1.584893e+00,	0.000000e+00	7.500000e-01,	0.000000e+00	
3	1.995262e+00,	0.000000e+00	7.500000e-01,	0.000000e+00	
4	2.511886e+00,	0.000000e+00	7.500000e-01,	0.000000e+00	
5	3.162278e+00,	0.000000e+00	7.500000e-01,	0.000000e+00	
6	3.981072e+00,	0.000000e+00	7.500000e-01,	0.000000e+00	
7	5.011872e+00,	0.000000e+00	7.500000e-01,	0.000000e+00	
8	6.309573e+00,	0.000000e+00	7.500000e-01,	0.000000e+00	
9	7.943282e+00,	0.000000e+00	7.500000e-01,	0.000000e+00	
10	1.000000e+01,	0.000000e+00	7.500000e-01,	0.000000e+00	
11	1.258925e+01,	0.000000e+00	7.500000e-01,	0.000000e+00	
12	1.584893e+01,	0.000000e+00	7.500000e-01,	0.000000e+00	
13	1.995262e+01,	0.000000e+00	7.500000e-01,	0.000000e+00	
14	2.511886e+01,	0.000000e+00	7.500000e-01,	0.000000e+00	
15	3.162278e+01,	0.000000e+00	7.500000e-01,	0.000000e+00	
16	3.981072e+01,	0.000000e+00	7.500000e-01,	0.000000e+00	
17	5.011872e+01,	0.000000e+00	7.500000e-01,	0.000000e+00	
18	6.309573e+01,	0.000000e+00	7.500000e-01,	0.000000e+00	
19	7.943282e+01,	0.000000e+00	7.500000e-01,	0.000000e+00	
20	1.000000e+02,	0.000000e+00	7.500000e-01,	0.000000e+00	
21	1.258925e+02,	0.000000e+00	7.500000e-01,	0.000000e+00	
22	1.584893e+02,	0.000000e+00	7.500000e-01,	0.000000e+00	
23	1.995262e+02,	0.000000e+00	7.500000e-01,	0.000000e+00	
24	2.511886e+02,	0.000000e+00	7.500000e-01,	0.000000e+00	
25	3.162278e+02,	0.000000e+00	7.500000e-01,	0.000000e+00	
26	3.981072e+02,	0.000000e+00	7.500000e-01,	0.000000e+00	
27	5.011872e+02,	0.000000e+00	7.500000e-01,	0.000000e+00	
28	6.309573e+02,	0.000000e+00	7.500000e-01,	0.000000e+00	
29	7.943282e+02,	0.000000e+00	7.500000e-01,	0.000000e+00	
30	1.000000e+03,	0.000000e+00	7.500000e-01,	0.000000e+00	
31	1.258925e+03,	0.000000e+00	7.500000e-01,	0.000000e+00	
32	1.584893e+03,	0.000000e+00	7.500000e-01,	0.000000e+00	
33	1.995262e+03,	0.000000e+00	7.500000e-01,	0.000000e+00	
34	2.511886e+03,	0.000000e+00	7.500000e-01,	0.000000e+00	
35	3.162278e+03,	0.000000e+00	7.500000e-01,	0.000000e+00	
36	3.981072e+03,	0.000000e+00	7.500000e-01,	0.000000e+00	
37	5.011872e+03,	0.000000e+00	7.500000e-01,	0.000000e+00	
38	6.309573e+03,	0.000000e+00	7.500000e-01,	0.000000e+00	
39	7.943282e+03,	0.000000e+00	7.500000e-01,	0.000000e+00	
40	1.000000e+04,	0.000000e+00	7.500000e-01,	0.000000e+00	




