
Circuit: * test "sens ac"

Doing analysis at TEMP = 27.000000 and TNOM = 27.000000

INFO: 0 of 3 tests failed
