
Circuit: ex3a lib problem

Doing analysis at TEMP = 27.000000 and TNOM = 27.000000


No. of Data Rows : 1
INFO: ok
