
Circuit: ***  For BSIM3V3 general purpose check (Id-Vd) for Pmosfet ***

Warning: Pd = 0 is less than W.
Warning: Ps = 0 is less than W.
Circuit: ***  For BSIM3V3 general purpose check (Id-Vd) for Pmosfet ***
Date: Tue Apr 20 23:14:45  1999


         ***  For BSIM3V3 general purpose check (Id-Vd) for Pmosfet ***
         DCtransferCurve  Tue Apr 20 23:14:44  1999
--------------------------------------------------------------------------------
Index   sweep           v(1)            vds#branch      
--------------------------------------------------------------------------------
0	0.000000e+00	0.000000e+00	0.000000e+00	
1	-5.00000e-02	0.000000e+00	7.765944e-14	
2	-1.00000e-01	0.000000e+00	1.105368e-13	
3	-1.50000e-01	0.000000e+00	1.606747e-13	
4	-2.00000e-01	0.000000e+00	2.107781e-13	
5	-2.50000e-01	0.000000e+00	2.608906e-13	
6	-3.00000e-01	0.000000e+00	3.110173e-13	
7	-3.50000e-01	0.000000e+00	3.611609e-13	
8	-4.00000e-01	0.000000e+00	4.113236e-13	
9	-4.50000e-01	0.000000e+00	4.615082e-13	
10	-5.00000e-01	0.000000e+00	5.117175e-13	
11	-5.50000e-01	0.000000e+00	5.619550e-13	
12	-6.00000e-01	0.000000e+00	6.122244e-13	
13	-6.50000e-01	0.000000e+00	6.625298e-13	
14	-7.00000e-01	0.000000e+00	7.128762e-13	
15	-7.50000e-01	0.000000e+00	7.632689e-13	
16	-8.00000e-01	0.000000e+00	8.137139e-13	
17	-8.50000e-01	0.000000e+00	8.642183e-13	
18	-9.00000e-01	0.000000e+00	9.147897e-13	
19	-9.50000e-01	0.000000e+00	9.654371e-13	
20	-1.00000e+00	0.000000e+00	1.016170e-12	
21	-1.05000e+00	0.000000e+00	1.067000e-12	
22	-1.10000e+00	0.000000e+00	1.117940e-12	
23	-1.15000e+00	0.000000e+00	1.169003e-12	
24	-1.20000e+00	0.000000e+00	1.220207e-12	
25	-1.25000e+00	0.000000e+00	1.271569e-12	
26	-1.30000e+00	0.000000e+00	1.323109e-12	
27	-1.35000e+00	0.000000e+00	1.374851e-12	
28	-1.40000e+00	0.000000e+00	1.426821e-12	
29	-1.45000e+00	0.000000e+00	1.479048e-12	
30	-1.50000e+00	0.000000e+00	1.531565e-12	
31	-1.55000e+00	0.000000e+00	1.584410e-12	
32	-1.60000e+00	0.000000e+00	1.637625e-12	
33	-1.65000e+00	0.000000e+00	1.691257e-12	
34	-1.70000e+00	0.000000e+00	1.745359e-12	
35	-1.75000e+00	0.000000e+00	1.799992e-12	
36	-1.80000e+00	0.000000e+00	1.855223e-12	
37	-1.85000e+00	0.000000e+00	1.911130e-12	
38	-1.90000e+00	0.000000e+00	1.967796e-12	
39	-1.95000e+00	0.000000e+00	2.025321e-12	
40	-2.00000e+00	0.000000e+00	2.083812e-12	
41	-2.05000e+00	0.000000e+00	2.143392e-12	
42	-2.10000e+00	0.000000e+00	2.204200e-12	
43	-2.15000e+00	0.000000e+00	2.266390e-12	
44	-2.20000e+00	0.000000e+00	2.330137e-12	
45	-2.25000e+00	0.000000e+00	2.395638e-12	
46	-2.30000e+00	0.000000e+00	2.463115e-12	
47	-2.35000e+00	0.000000e+00	2.532815e-12	
48	-2.40000e+00	0.000000e+00	2.605019e-12	
49	-2.45000e+00	0.000000e+00	2.680042e-12	
50	-2.50000e+00	0.000000e+00	2.758237e-12	
51	-2.55000e+00	0.000000e+00	2.840003e-12	
52	-2.60000e+00	0.000000e+00	2.925785e-12	
53	-2.65000e+00	0.000000e+00	3.016086e-12	
54	-2.70000e+00	0.000000e+00	3.111472e-12	

Index   sweep           v(1)            vds#branch      
--------------------------------------------------------------------------------
55	-2.75000e+00	0.000000e+00	3.212577e-12	
56	-2.80000e+00	0.000000e+00	3.320114e-12	
57	-2.85000e+00	0.000000e+00	3.434883e-12	
58	-2.90000e+00	0.000000e+00	3.557784e-12	
59	-2.95000e+00	0.000000e+00	3.689828e-12	
60	-3.00000e+00	0.000000e+00	3.832149e-12	
61	-3.05000e+00	0.000000e+00	3.986022e-12	
62	-3.10000e+00	0.000000e+00	4.152877e-12	
63	-3.15000e+00	0.000000e+00	4.334320e-12	
64	-3.20000e+00	0.000000e+00	4.532153e-12	
65	-3.25000e+00	0.000000e+00	4.748401e-12	
66	-3.30000e+00	0.000000e+00	4.985333e-12	
67	-3.35000e+00	0.000000e+00	5.245498e-12	
68	-3.40000e+00	0.000000e+00	5.531754e-12	
69	-3.45000e+00	0.000000e+00	5.847308e-12	
70	-3.50000e+00	0.000000e+00	6.195759e-12	
71	0.000000e+00	-5.00000e-01	0.000000e+00	
72	-5.00000e-02	-5.00000e-01	1.327640e-08	
73	-1.00000e-01	-5.00000e-01	1.611460e-08	
74	-1.50000e-01	-5.00000e-01	1.846319e-08	
75	-2.00000e-01	-5.00000e-01	2.096717e-08	
76	-2.50000e-01	-5.00000e-01	2.373100e-08	
77	-3.00000e-01	-5.00000e-01	2.680751e-08	
78	-3.50000e-01	-5.00000e-01	3.024147e-08	
79	-4.00000e-01	-5.00000e-01	3.407792e-08	
80	-4.50000e-01	-5.00000e-01	3.836479e-08	
81	-5.00000e-01	-5.00000e-01	4.315412e-08	
82	-5.50000e-01	-5.00000e-01	4.850289e-08	
83	-6.00000e-01	-5.00000e-01	5.447364e-08	
84	-6.50000e-01	-5.00000e-01	6.113517e-08	
85	-7.00000e-01	-5.00000e-01	6.856313e-08	
86	-7.50000e-01	-5.00000e-01	7.684072e-08	
87	-8.00000e-01	-5.00000e-01	8.605942e-08	
88	-8.50000e-01	-5.00000e-01	9.631972e-08	
89	-9.00000e-01	-5.00000e-01	1.077320e-07	
90	-9.50000e-01	-5.00000e-01	1.204172e-07	
91	-1.00000e+00	-5.00000e-01	1.345083e-07	
92	-1.05000e+00	-5.00000e-01	1.501506e-07	
93	-1.10000e+00	-5.00000e-01	1.675033e-07	
94	-1.15000e+00	-5.00000e-01	1.867407e-07	
95	-1.20000e+00	-5.00000e-01	2.080532e-07	
96	-1.25000e+00	-5.00000e-01	2.316486e-07	
97	-1.30000e+00	-5.00000e-01	2.577539e-07	
98	-1.35000e+00	-5.00000e-01	2.866162e-07	
99	-1.40000e+00	-5.00000e-01	3.185051e-07	
100	-1.45000e+00	-5.00000e-01	3.537133e-07	
101	-1.50000e+00	-5.00000e-01	3.925592e-07	
102	-1.55000e+00	-5.00000e-01	4.353885e-07	
103	-1.60000e+00	-5.00000e-01	4.825756e-07	
104	-1.65000e+00	-5.00000e-01	5.345260e-07	
105	-1.70000e+00	-5.00000e-01	5.916781e-07	
106	-1.75000e+00	-5.00000e-01	6.545051e-07	
107	-1.80000e+00	-5.00000e-01	7.235166e-07	
108	-1.85000e+00	-5.00000e-01	7.992611e-07	
109	-1.90000e+00	-5.00000e-01	8.823272e-07	
110	-1.95000e+00	-5.00000e-01	9.733457e-07	
111	-2.00000e+00	-5.00000e-01	1.072991e-06	
112	-2.05000e+00	-5.00000e-01	1.181982e-06	

Index   sweep           v(1)            vds#branch      
--------------------------------------------------------------------------------
113	-2.10000e+00	-5.00000e-01	1.301085e-06	
114	-2.15000e+00	-5.00000e-01	1.431111e-06	
115	-2.20000e+00	-5.00000e-01	1.572920e-06	
116	-2.25000e+00	-5.00000e-01	1.727421e-06	
117	-2.30000e+00	-5.00000e-01	1.895568e-06	
118	-2.35000e+00	-5.00000e-01	2.078363e-06	
119	-2.40000e+00	-5.00000e-01	2.276854e-06	
120	-2.45000e+00	-5.00000e-01	2.492134e-06	
121	-2.50000e+00	-5.00000e-01	2.725339e-06	
122	-2.55000e+00	-5.00000e-01	2.977642e-06	
123	-2.60000e+00	-5.00000e-01	3.250256e-06	
124	-2.65000e+00	-5.00000e-01	3.544428e-06	
125	-2.70000e+00	-5.00000e-01	3.861431e-06	
126	-2.75000e+00	-5.00000e-01	4.202568e-06	
127	-2.80000e+00	-5.00000e-01	4.569160e-06	
128	-2.85000e+00	-5.00000e-01	4.962543e-06	
129	-2.90000e+00	-5.00000e-01	5.384067e-06	
130	-2.95000e+00	-5.00000e-01	5.835083e-06	
131	-3.00000e+00	-5.00000e-01	6.316943e-06	
132	-3.05000e+00	-5.00000e-01	6.830992e-06	
133	-3.10000e+00	-5.00000e-01	7.378563e-06	
134	-3.15000e+00	-5.00000e-01	7.960971e-06	
135	-3.20000e+00	-5.00000e-01	8.579507e-06	
136	-3.25000e+00	-5.00000e-01	9.235431e-06	
137	-3.30000e+00	-5.00000e-01	9.929973e-06	
138	-3.35000e+00	-5.00000e-01	1.066432e-05	
139	-3.40000e+00	-5.00000e-01	1.143962e-05	
140	-3.45000e+00	-5.00000e-01	1.225696e-05	
141	-3.50000e+00	-5.00000e-01	1.311739e-05	
142	0.000000e+00	-1.00000e+00	0.000000e+00	
143	-5.00000e-02	-1.00000e+00	4.814763e-05	
144	-1.00000e-01	-1.00000e+00	8.757843e-05	
145	-1.50000e-01	-1.00000e+00	1.187516e-04	
146	-2.00000e-01	-1.00000e+00	1.422126e-04	
147	-2.50000e-01	-1.00000e+00	1.588145e-04	
148	-3.00000e-01	-1.00000e+00	1.701253e-04	
149	-3.50000e-01	-1.00000e+00	1.782979e-04	
150	-4.00000e-01	-1.00000e+00	1.849752e-04	
151	-4.50000e-01	-1.00000e+00	1.909301e-04	
152	-5.00000e-01	-1.00000e+00	1.964810e-04	
153	-5.50000e-01	-1.00000e+00	2.017755e-04	
154	-6.00000e-01	-1.00000e+00	2.068948e-04	
155	-6.50000e-01	-1.00000e+00	2.118894e-04	
156	-7.00000e-01	-1.00000e+00	2.167934e-04	
157	-7.50000e-01	-1.00000e+00	2.216310e-04	
158	-8.00000e-01	-1.00000e+00	2.264203e-04	
159	-8.50000e-01	-1.00000e+00	2.311750e-04	
160	-9.00000e-01	-1.00000e+00	2.359058e-04	
161	-9.50000e-01	-1.00000e+00	2.406211e-04	
162	-1.00000e+00	-1.00000e+00	2.453277e-04	
163	-1.05000e+00	-1.00000e+00	2.500310e-04	
164	-1.10000e+00	-1.00000e+00	2.547357e-04	
165	-1.15000e+00	-1.00000e+00	2.594455e-04	
166	-1.20000e+00	-1.00000e+00	2.641635e-04	
167	-1.25000e+00	-1.00000e+00	2.688923e-04	
168	-1.30000e+00	-1.00000e+00	2.736341e-04	
169	-1.35000e+00	-1.00000e+00	2.783909e-04	
170	-1.40000e+00	-1.00000e+00	2.831643e-04	

Index   sweep           v(1)            vds#branch      
--------------------------------------------------------------------------------
171	-1.45000e+00	-1.00000e+00	2.879556e-04	
172	-1.50000e+00	-1.00000e+00	2.927661e-04	
173	-1.55000e+00	-1.00000e+00	2.975967e-04	
174	-1.60000e+00	-1.00000e+00	3.024485e-04	
175	-1.65000e+00	-1.00000e+00	3.073222e-04	
176	-1.70000e+00	-1.00000e+00	3.122185e-04	
177	-1.75000e+00	-1.00000e+00	3.171380e-04	
178	-1.80000e+00	-1.00000e+00	3.220812e-04	
179	-1.85000e+00	-1.00000e+00	3.270486e-04	
180	-1.90000e+00	-1.00000e+00	3.320406e-04	
181	-1.95000e+00	-1.00000e+00	3.370576e-04	
182	-2.00000e+00	-1.00000e+00	3.420999e-04	
183	-2.05000e+00	-1.00000e+00	3.471678e-04	
184	-2.10000e+00	-1.00000e+00	3.522616e-04	
185	-2.15000e+00	-1.00000e+00	3.573814e-04	
186	-2.20000e+00	-1.00000e+00	3.625276e-04	
187	-2.25000e+00	-1.00000e+00	3.677003e-04	
188	-2.30000e+00	-1.00000e+00	3.728997e-04	
189	-2.35000e+00	-1.00000e+00	3.781260e-04	
190	-2.40000e+00	-1.00000e+00	3.833792e-04	
191	-2.45000e+00	-1.00000e+00	3.886597e-04	
192	-2.50000e+00	-1.00000e+00	3.939676e-04	
193	-2.55000e+00	-1.00000e+00	3.993030e-04	
194	-2.60000e+00	-1.00000e+00	4.046661e-04	
195	-2.65000e+00	-1.00000e+00	4.100571e-04	
196	-2.70000e+00	-1.00000e+00	4.154762e-04	
197	-2.75000e+00	-1.00000e+00	4.209236e-04	
198	-2.80000e+00	-1.00000e+00	4.263994e-04	
199	-2.85000e+00	-1.00000e+00	4.319037e-04	
200	-2.90000e+00	-1.00000e+00	4.374363e-04	
201	-2.95000e+00	-1.00000e+00	4.429974e-04	
202	-3.00000e+00	-1.00000e+00	4.485867e-04	
203	-3.05000e+00	-1.00000e+00	4.542041e-04	
204	-3.10000e+00	-1.00000e+00	4.598494e-04	
205	-3.15000e+00	-1.00000e+00	4.655225e-04	
206	-3.20000e+00	-1.00000e+00	4.712231e-04	
207	-3.25000e+00	-1.00000e+00	4.769512e-04	
208	-3.30000e+00	-1.00000e+00	4.827067e-04	
209	-3.35000e+00	-1.00000e+00	4.884894e-04	
210	-3.40000e+00	-1.00000e+00	4.942992e-04	
211	-3.45000e+00	-1.00000e+00	5.001360e-04	
212	-3.50000e+00	-1.00000e+00	5.059998e-04	
213	0.000000e+00	-1.50000e+00	0.000000e+00	
214	-5.00000e-02	-1.50000e+00	1.209108e-04	
215	-1.00000e-01	-1.50000e+00	2.311201e-04	
216	-1.50000e-01	-1.50000e+00	3.310929e-04	
217	-2.00000e-01	-1.50000e+00	4.212699e-04	
218	-2.50000e-01	-1.50000e+00	5.020694e-04	
219	-3.00000e-01	-1.50000e+00	5.738920e-04	
220	-3.50000e-01	-1.50000e+00	6.371259e-04	
221	-4.00000e-01	-1.50000e+00	6.921579e-04	
222	-4.50000e-01	-1.50000e+00	7.393952e-04	
223	-5.00000e-01	-1.50000e+00	7.793122e-04	
224	-5.50000e-01	-1.50000e+00	8.125425e-04	
225	-6.00000e-01	-1.50000e+00	8.400027e-04	
226	-6.50000e-01	-1.50000e+00	8.629007e-04	
227	-7.00000e-01	-1.50000e+00	8.824759e-04	
228	-7.50000e-01	-1.50000e+00	8.997036e-04	

Index   sweep           v(1)            vds#branch      
--------------------------------------------------------------------------------
229	-8.00000e-01	-1.50000e+00	9.152414e-04	
230	-8.50000e-01	-1.50000e+00	9.295197e-04	
231	-9.00000e-01	-1.50000e+00	9.428295e-04	
232	-9.50000e-01	-1.50000e+00	9.553761e-04	
233	-1.00000e+00	-1.50000e+00	9.673097e-04	
234	-1.05000e+00	-1.50000e+00	9.787437e-04	
235	-1.10000e+00	-1.50000e+00	9.897653e-04	
236	-1.15000e+00	-1.50000e+00	1.000443e-03	
237	-1.20000e+00	-1.50000e+00	1.010832e-03	
238	-1.25000e+00	-1.50000e+00	1.020976e-03	
239	-1.30000e+00	-1.50000e+00	1.030910e-03	
240	-1.35000e+00	-1.50000e+00	1.040666e-03	
241	-1.40000e+00	-1.50000e+00	1.050267e-03	
242	-1.45000e+00	-1.50000e+00	1.059735e-03	
243	-1.50000e+00	-1.50000e+00	1.069086e-03	
244	-1.55000e+00	-1.50000e+00	1.078337e-03	
245	-1.60000e+00	-1.50000e+00	1.087500e-03	
246	-1.65000e+00	-1.50000e+00	1.096586e-03	
247	-1.70000e+00	-1.50000e+00	1.105604e-03	
248	-1.75000e+00	-1.50000e+00	1.114563e-03	
249	-1.80000e+00	-1.50000e+00	1.123471e-03	
250	-1.85000e+00	-1.50000e+00	1.132333e-03	
251	-1.90000e+00	-1.50000e+00	1.141156e-03	
252	-1.95000e+00	-1.50000e+00	1.149944e-03	
253	-2.00000e+00	-1.50000e+00	1.158701e-03	
254	-2.05000e+00	-1.50000e+00	1.167433e-03	
255	-2.10000e+00	-1.50000e+00	1.176141e-03	
256	-2.15000e+00	-1.50000e+00	1.184831e-03	
257	-2.20000e+00	-1.50000e+00	1.193503e-03	
258	-2.25000e+00	-1.50000e+00	1.202162e-03	
259	-2.30000e+00	-1.50000e+00	1.210808e-03	
260	-2.35000e+00	-1.50000e+00	1.219446e-03	
261	-2.40000e+00	-1.50000e+00	1.228075e-03	
262	-2.45000e+00	-1.50000e+00	1.236698e-03	
263	-2.50000e+00	-1.50000e+00	1.245317e-03	
264	-2.55000e+00	-1.50000e+00	1.253933e-03	
265	-2.60000e+00	-1.50000e+00	1.262547e-03	
266	-2.65000e+00	-1.50000e+00	1.271161e-03	
267	-2.70000e+00	-1.50000e+00	1.279775e-03	
268	-2.75000e+00	-1.50000e+00	1.288391e-03	
269	-2.80000e+00	-1.50000e+00	1.297009e-03	
270	-2.85000e+00	-1.50000e+00	1.305631e-03	
271	-2.90000e+00	-1.50000e+00	1.314258e-03	
272	-2.95000e+00	-1.50000e+00	1.322889e-03	
273	-3.00000e+00	-1.50000e+00	1.331526e-03	
274	-3.05000e+00	-1.50000e+00	1.340169e-03	
275	-3.10000e+00	-1.50000e+00	1.348819e-03	
276	-3.15000e+00	-1.50000e+00	1.357477e-03	
277	-3.20000e+00	-1.50000e+00	1.366142e-03	
278	-3.25000e+00	-1.50000e+00	1.374816e-03	
279	-3.30000e+00	-1.50000e+00	1.383498e-03	
280	-3.35000e+00	-1.50000e+00	1.392190e-03	
281	-3.40000e+00	-1.50000e+00	1.400892e-03	
282	-3.45000e+00	-1.50000e+00	1.409603e-03	
283	-3.50000e+00	-1.50000e+00	1.418325e-03	
284	0.000000e+00	-2.00000e+00	0.000000e+00	
285	-5.00000e-02	-2.00000e+00	1.834077e-04	
286	-1.00000e-01	-2.00000e+00	3.550706e-04	

Index   sweep           v(1)            vds#branch      
--------------------------------------------------------------------------------
287	-1.50000e-01	-2.00000e+00	5.154615e-04	
288	-2.00000e-01	-2.00000e+00	6.650286e-04	
289	-2.50000e-01	-2.00000e+00	8.041970e-04	
290	-3.00000e-01	-2.00000e+00	9.333704e-04	
291	-3.50000e-01	-2.00000e+00	1.052932e-03	
292	-4.00000e-01	-2.00000e+00	1.163248e-03	
293	-4.50000e-01	-2.00000e+00	1.264665e-03	
294	-5.00000e-01	-2.00000e+00	1.357519e-03	
295	-5.50000e-01	-2.00000e+00	1.442130e-03	
296	-6.00000e-01	-2.00000e+00	1.518810e-03	
297	-6.50000e-01	-2.00000e+00	1.587868e-03	
298	-7.00000e-01	-2.00000e+00	1.649621e-03	
299	-7.50000e-01	-2.00000e+00	1.704411e-03	
300	-8.00000e-01	-2.00000e+00	1.752646e-03	
301	-8.50000e-01	-2.00000e+00	1.794852e-03	
302	-9.00000e-01	-2.00000e+00	1.831713e-03	
303	-9.50000e-01	-2.00000e+00	1.864043e-03	
304	-1.00000e+00	-2.00000e+00	1.892670e-03	
305	-1.05000e+00	-2.00000e+00	1.918329e-03	
306	-1.10000e+00	-2.00000e+00	1.941619e-03	
307	-1.15000e+00	-2.00000e+00	1.963007e-03	
308	-1.20000e+00	-2.00000e+00	1.982856e-03	
309	-1.25000e+00	-2.00000e+00	2.001446e-03	
310	-1.30000e+00	-2.00000e+00	2.018995e-03	
311	-1.35000e+00	-2.00000e+00	2.035674e-03	
312	-1.40000e+00	-2.00000e+00	2.051621e-03	
313	-1.45000e+00	-2.00000e+00	2.066946e-03	
314	-1.50000e+00	-2.00000e+00	2.081740e-03	
315	-1.55000e+00	-2.00000e+00	2.096075e-03	
316	-1.60000e+00	-2.00000e+00	2.110012e-03	
317	-1.65000e+00	-2.00000e+00	2.123604e-03	
318	-1.70000e+00	-2.00000e+00	2.136893e-03	
319	-1.75000e+00	-2.00000e+00	2.149914e-03	
320	-1.80000e+00	-2.00000e+00	2.162700e-03	
321	-1.85000e+00	-2.00000e+00	2.175277e-03	
322	-1.90000e+00	-2.00000e+00	2.187668e-03	
323	-1.95000e+00	-2.00000e+00	2.199892e-03	
324	-2.00000e+00	-2.00000e+00	2.211967e-03	
325	-2.05000e+00	-2.00000e+00	2.223909e-03	
326	-2.10000e+00	-2.00000e+00	2.235730e-03	
327	-2.15000e+00	-2.00000e+00	2.247443e-03	
328	-2.20000e+00	-2.00000e+00	2.259057e-03	
329	-2.25000e+00	-2.00000e+00	2.270583e-03	
330	-2.30000e+00	-2.00000e+00	2.282028e-03	
331	-2.35000e+00	-2.00000e+00	2.293400e-03	
332	-2.40000e+00	-2.00000e+00	2.304705e-03	
333	-2.45000e+00	-2.00000e+00	2.315950e-03	
334	-2.50000e+00	-2.00000e+00	2.327140e-03	
335	-2.55000e+00	-2.00000e+00	2.338279e-03	
336	-2.60000e+00	-2.00000e+00	2.349373e-03	
337	-2.65000e+00	-2.00000e+00	2.360424e-03	
338	-2.70000e+00	-2.00000e+00	2.371438e-03	
339	-2.75000e+00	-2.00000e+00	2.382417e-03	
340	-2.80000e+00	-2.00000e+00	2.393364e-03	
341	-2.85000e+00	-2.00000e+00	2.404282e-03	
342	-2.90000e+00	-2.00000e+00	2.415174e-03	
343	-2.95000e+00	-2.00000e+00	2.426041e-03	
344	-3.00000e+00	-2.00000e+00	2.436887e-03	

Index   sweep           v(1)            vds#branch      
--------------------------------------------------------------------------------
345	-3.05000e+00	-2.00000e+00	2.447713e-03	
346	-3.10000e+00	-2.00000e+00	2.458521e-03	
347	-3.15000e+00	-2.00000e+00	2.469313e-03	
348	-3.20000e+00	-2.00000e+00	2.480090e-03	
349	-3.25000e+00	-2.00000e+00	2.490854e-03	
350	-3.30000e+00	-2.00000e+00	2.501606e-03	
351	-3.35000e+00	-2.00000e+00	2.512348e-03	
352	-3.40000e+00	-2.00000e+00	2.523080e-03	
353	-3.45000e+00	-2.00000e+00	2.533804e-03	
354	-3.50000e+00	-2.00000e+00	2.544521e-03	
355	0.000000e+00	-2.50000e+00	0.000000e+00	
356	-5.00000e-02	-2.50000e+00	2.376437e-04	
357	-1.00000e-01	-2.50000e+00	4.629057e-04	
358	-1.50000e-01	-2.50000e+00	6.762515e-04	
359	-2.00000e-01	-2.50000e+00	8.781239e-04	
360	-2.50000e-01	-2.50000e+00	1.068944e-03	
361	-3.00000e-01	-2.50000e+00	1.249113e-03	
362	-3.50000e-01	-2.50000e+00	1.419012e-03	
363	-4.00000e-01	-2.50000e+00	1.579006e-03	
364	-4.50000e-01	-2.50000e+00	1.729441e-03	
365	-5.00000e-01	-2.50000e+00	1.870649e-03	
366	-5.50000e-01	-2.50000e+00	2.002946e-03	
367	-6.00000e-01	-2.50000e+00	2.126633e-03	
368	-6.50000e-01	-2.50000e+00	2.242000e-03	
369	-7.00000e-01	-2.50000e+00	2.349323e-03	
370	-7.50000e-01	-2.50000e+00	2.448864e-03	
371	-8.00000e-01	-2.50000e+00	2.540876e-03	
372	-8.50000e-01	-2.50000e+00	2.625596e-03	
373	-9.00000e-01	-2.50000e+00	2.703249e-03	
374	-9.50000e-01	-2.50000e+00	2.774043e-03	
375	-1.00000e+00	-2.50000e+00	2.838173e-03	
376	-1.05000e+00	-2.50000e+00	2.895852e-03	
377	-1.10000e+00	-2.50000e+00	2.947365e-03	
378	-1.15000e+00	-2.50000e+00	2.993161e-03	
379	-1.20000e+00	-2.50000e+00	3.033872e-03	
380	-1.25000e+00	-2.50000e+00	3.070232e-03	
381	-1.30000e+00	-2.50000e+00	3.102964e-03	
382	-1.35000e+00	-2.50000e+00	3.132707e-03	
383	-1.40000e+00	-2.50000e+00	3.159991e-03	
384	-1.45000e+00	-2.50000e+00	3.185246e-03	
385	-1.50000e+00	-2.50000e+00	3.208815e-03	
386	-1.55000e+00	-2.50000e+00	3.230973e-03	
387	-1.60000e+00	-2.50000e+00	3.251941e-03	
388	-1.65000e+00	-2.50000e+00	3.271898e-03	
389	-1.70000e+00	-2.50000e+00	3.290989e-03	
390	-1.75000e+00	-2.50000e+00	3.309333e-03	
391	-1.80000e+00	-2.50000e+00	3.327031e-03	
392	-1.85000e+00	-2.50000e+00	3.344164e-03	
393	-1.90000e+00	-2.50000e+00	3.360802e-03	
394	-1.95000e+00	-2.50000e+00	3.377005e-03	
395	-2.00000e+00	-2.50000e+00	3.392821e-03	
396	-2.05000e+00	-2.50000e+00	3.408295e-03	
397	-2.10000e+00	-2.50000e+00	3.423463e-03	
398	-2.15000e+00	-2.50000e+00	3.438356e-03	
399	-2.20000e+00	-2.50000e+00	3.453004e-03	
400	-2.25000e+00	-2.50000e+00	3.467429e-03	
401	-2.30000e+00	-2.50000e+00	3.481654e-03	
402	-2.35000e+00	-2.50000e+00	3.495698e-03	

Index   sweep           v(1)            vds#branch      
--------------------------------------------------------------------------------
403	-2.40000e+00	-2.50000e+00	3.509576e-03	
404	-2.45000e+00	-2.50000e+00	3.523305e-03	
405	-2.50000e+00	-2.50000e+00	3.536896e-03	
406	-2.55000e+00	-2.50000e+00	3.550362e-03	
407	-2.60000e+00	-2.50000e+00	3.563714e-03	
408	-2.65000e+00	-2.50000e+00	3.576960e-03	
409	-2.70000e+00	-2.50000e+00	3.590110e-03	
410	-2.75000e+00	-2.50000e+00	3.603170e-03	
411	-2.80000e+00	-2.50000e+00	3.616149e-03	
412	-2.85000e+00	-2.50000e+00	3.629052e-03	
413	-2.90000e+00	-2.50000e+00	3.641886e-03	
414	-2.95000e+00	-2.50000e+00	3.654655e-03	
415	-3.00000e+00	-2.50000e+00	3.667364e-03	
416	-3.05000e+00	-2.50000e+00	3.680019e-03	
417	-3.10000e+00	-2.50000e+00	3.692622e-03	
418	-3.15000e+00	-2.50000e+00	3.705177e-03	
419	-3.20000e+00	-2.50000e+00	3.717689e-03	
420	-3.25000e+00	-2.50000e+00	3.730160e-03	
421	-3.30000e+00	-2.50000e+00	3.742593e-03	
422	-3.35000e+00	-2.50000e+00	3.754990e-03	
423	-3.40000e+00	-2.50000e+00	3.767355e-03	
424	-3.45000e+00	-2.50000e+00	3.779690e-03	
425	-3.50000e+00	-2.50000e+00	3.791996e-03	
426	0.000000e+00	-3.00000e+00	0.000000e+00	
427	-5.00000e-02	-3.00000e+00	2.852091e-04	
428	-1.00000e-01	-3.00000e+00	5.576523e-04	
429	-1.50000e-01	-3.00000e+00	8.177804e-04	
430	-2.00000e-01	-3.00000e+00	1.066023e-03	
431	-2.50000e-01	-3.00000e+00	1.302791e-03	
432	-3.00000e-01	-3.00000e+00	1.528476e-03	
433	-3.50000e-01	-3.00000e+00	1.743451e-03	
434	-4.00000e-01	-3.00000e+00	1.948074e-03	
435	-4.50000e-01	-3.00000e+00	2.142687e-03	
436	-5.00000e-01	-3.00000e+00	2.327615e-03	
437	-5.50000e-01	-3.00000e+00	2.503173e-03	
438	-6.00000e-01	-3.00000e+00	2.669659e-03	
439	-6.50000e-01	-3.00000e+00	2.827359e-03	
440	-7.00000e-01	-3.00000e+00	2.976547e-03	
441	-7.50000e-01	-3.00000e+00	3.117485e-03	
442	-8.00000e-01	-3.00000e+00	3.250423e-03	
443	-8.50000e-01	-3.00000e+00	3.375601e-03	
444	-9.00000e-01	-3.00000e+00	3.493242e-03	
445	-9.50000e-01	-3.00000e+00	3.603558e-03	
446	-1.00000e+00	-3.00000e+00	3.706742e-03	
447	-1.05000e+00	-3.00000e+00	3.802962e-03	
448	-1.10000e+00	-3.00000e+00	3.892352e-03	
449	-1.15000e+00	-3.00000e+00	3.974994e-03	
450	-1.20000e+00	-3.00000e+00	4.050916e-03	
451	-1.25000e+00	-3.00000e+00	4.120107e-03	
452	-1.30000e+00	-3.00000e+00	4.182610e-03	
453	-1.35000e+00	-3.00000e+00	4.238655e-03	
454	-1.40000e+00	-3.00000e+00	4.288733e-03	
455	-1.45000e+00	-3.00000e+00	4.333536e-03	
456	-1.50000e+00	-3.00000e+00	4.373830e-03	
457	-1.55000e+00	-3.00000e+00	4.410338e-03	
458	-1.60000e+00	-3.00000e+00	4.443692e-03	
459	-1.65000e+00	-3.00000e+00	4.474418e-03	
460	-1.70000e+00	-3.00000e+00	4.502947e-03	

Index   sweep           v(1)            vds#branch      
--------------------------------------------------------------------------------
461	-1.75000e+00	-3.00000e+00	4.529628e-03	
462	-1.80000e+00	-3.00000e+00	4.554746e-03	
463	-1.85000e+00	-3.00000e+00	4.578532e-03	
464	-1.90000e+00	-3.00000e+00	4.601174e-03	
465	-1.95000e+00	-3.00000e+00	4.622830e-03	
466	-2.00000e+00	-3.00000e+00	4.643629e-03	
467	-2.05000e+00	-3.00000e+00	4.663680e-03	
468	-2.10000e+00	-3.00000e+00	4.683074e-03	
469	-2.15000e+00	-3.00000e+00	4.701888e-03	
470	-2.20000e+00	-3.00000e+00	4.720189e-03	
471	-2.25000e+00	-3.00000e+00	4.738032e-03	
472	-2.30000e+00	-3.00000e+00	4.755467e-03	
473	-2.35000e+00	-3.00000e+00	4.772536e-03	
474	-2.40000e+00	-3.00000e+00	4.789275e-03	
475	-2.45000e+00	-3.00000e+00	4.805717e-03	
476	-2.50000e+00	-3.00000e+00	4.821890e-03	
477	-2.55000e+00	-3.00000e+00	4.837818e-03	
478	-2.60000e+00	-3.00000e+00	4.853524e-03	
479	-2.65000e+00	-3.00000e+00	4.869027e-03	
480	-2.70000e+00	-3.00000e+00	4.884344e-03	
481	-2.75000e+00	-3.00000e+00	4.899492e-03	
482	-2.80000e+00	-3.00000e+00	4.914484e-03	
483	-2.85000e+00	-3.00000e+00	4.929332e-03	
484	-2.90000e+00	-3.00000e+00	4.944047e-03	
485	-2.95000e+00	-3.00000e+00	4.958641e-03	
486	-3.00000e+00	-3.00000e+00	4.973122e-03	
487	-3.05000e+00	-3.00000e+00	4.987499e-03	
488	-3.10000e+00	-3.00000e+00	5.001779e-03	
489	-3.15000e+00	-3.00000e+00	5.015969e-03	
490	-3.20000e+00	-3.00000e+00	5.030075e-03	
491	-3.25000e+00	-3.00000e+00	5.044104e-03	
492	-3.30000e+00	-3.00000e+00	5.058061e-03	
493	-3.35000e+00	-3.00000e+00	5.071951e-03	
494	-3.40000e+00	-3.00000e+00	5.085778e-03	
495	-3.45000e+00	-3.00000e+00	5.099546e-03	
496	-3.50000e+00	-3.00000e+00	5.113259e-03	
497	0.000000e+00	-3.50000e+00	0.000000e+00	
498	-5.00000e-02	-3.50000e+00	3.273234e-04	
499	-1.00000e-01	-3.50000e+00	6.416669e-04	
500	-1.50000e-01	-3.50000e+00	9.434627e-04	
501	-2.00000e-01	-3.50000e+00	1.233124e-03	
502	-2.50000e-01	-3.50000e+00	1.511047e-03	
503	-3.00000e-01	-3.50000e+00	1.777610e-03	
504	-3.50000e-01	-3.50000e+00	2.033174e-03	
505	-4.00000e-01	-3.50000e+00	2.278088e-03	
506	-4.50000e-01	-3.50000e+00	2.512685e-03	
507	-5.00000e-01	-3.50000e+00	2.737282e-03	
508	-5.50000e-01	-3.50000e+00	2.952186e-03	
509	-6.00000e-01	-3.50000e+00	3.157690e-03	
510	-6.50000e-01	-3.50000e+00	3.354075e-03	
511	-7.00000e-01	-3.50000e+00	3.541613e-03	
512	-7.50000e-01	-3.50000e+00	3.720561e-03	
513	-8.00000e-01	-3.50000e+00	3.891168e-03	
514	-8.50000e-01	-3.50000e+00	4.053673e-03	
515	-9.00000e-01	-3.50000e+00	4.208303e-03	
516	-9.50000e-01	-3.50000e+00	4.355275e-03	
517	-1.00000e+00	-3.50000e+00	4.494796e-03	
518	-1.05000e+00	-3.50000e+00	4.627058e-03	

Index   sweep           v(1)            vds#branch      
--------------------------------------------------------------------------------
519	-1.10000e+00	-3.50000e+00	4.752238e-03	
520	-1.15000e+00	-3.50000e+00	4.870494e-03	
521	-1.20000e+00	-3.50000e+00	4.981953e-03	
522	-1.25000e+00	-3.50000e+00	5.086700e-03	
523	-1.30000e+00	-3.50000e+00	5.184756e-03	
524	-1.35000e+00	-3.50000e+00	5.276056e-03	
525	-1.40000e+00	-3.50000e+00	5.360446e-03	
526	-1.45000e+00	-3.50000e+00	5.437733e-03	
527	-1.50000e+00	-3.50000e+00	5.507822e-03	
528	-1.55000e+00	-3.50000e+00	5.570876e-03	
529	-1.60000e+00	-3.50000e+00	5.627378e-03	
530	-1.65000e+00	-3.50000e+00	5.678043e-03	
531	-1.70000e+00	-3.50000e+00	5.723674e-03	
532	-1.75000e+00	-3.50000e+00	5.765042e-03	
533	-1.80000e+00	-3.50000e+00	5.802829e-03	
534	-1.85000e+00	-3.50000e+00	5.837610e-03	
535	-1.90000e+00	-3.50000e+00	5.869864e-03	
536	-1.95000e+00	-3.50000e+00	5.899982e-03	
537	-2.00000e+00	-3.50000e+00	5.928283e-03	
538	-2.05000e+00	-3.50000e+00	5.955030e-03	
539	-2.10000e+00	-3.50000e+00	5.980440e-03	
540	-2.15000e+00	-3.50000e+00	6.004692e-03	
541	-2.20000e+00	-3.50000e+00	6.027936e-03	
542	-2.25000e+00	-3.50000e+00	6.050298e-03	
543	-2.30000e+00	-3.50000e+00	6.071883e-03	
544	-2.35000e+00	-3.50000e+00	6.092782e-03	
545	-2.40000e+00	-3.50000e+00	6.113072e-03	
546	-2.45000e+00	-3.50000e+00	6.132818e-03	
547	-2.50000e+00	-3.50000e+00	6.152079e-03	
548	-2.55000e+00	-3.50000e+00	6.170902e-03	
549	-2.60000e+00	-3.50000e+00	6.189332e-03	
550	-2.65000e+00	-3.50000e+00	6.207406e-03	
551	-2.70000e+00	-3.50000e+00	6.225158e-03	
552	-2.75000e+00	-3.50000e+00	6.242616e-03	
553	-2.80000e+00	-3.50000e+00	6.259807e-03	
554	-2.85000e+00	-3.50000e+00	6.276754e-03	
555	-2.90000e+00	-3.50000e+00	6.293477e-03	
556	-2.95000e+00	-3.50000e+00	6.309995e-03	
557	-3.00000e+00	-3.50000e+00	6.326324e-03	
558	-3.05000e+00	-3.50000e+00	6.342479e-03	
559	-3.10000e+00	-3.50000e+00	6.358473e-03	
560	-3.15000e+00	-3.50000e+00	6.374319e-03	
561	-3.20000e+00	-3.50000e+00	6.390028e-03	
562	-3.25000e+00	-3.50000e+00	6.405609e-03	
563	-3.30000e+00	-3.50000e+00	6.421071e-03	
564	-3.35000e+00	-3.50000e+00	6.436424e-03	
565	-3.40000e+00	-3.50000e+00	6.451674e-03	
566	-3.45000e+00	-3.50000e+00	6.466829e-03	
567	-3.50000e+00	-3.50000e+00	6.481894e-03	



Total run time: 1.080 seconds.

Current data size = 245760,
Data limits: hard = 2147483647, soft = 2147483647.

