
Circuit: ***  For BSIM3V3  general purpose check (Id-Vg) for Pmosfet***

Warning: Pd = 0 is less than W.
Warning: Ps = 0 is less than W.
Circuit: ***  For BSIM3V3  general purpose check (Id-Vg) for Pmosfet***
Date: Tue Apr 20 23:16:15  1999


         ***  For BSIM3V3  general purpose check (Id-Vg) for Pmosfet***
         DCtransferCurve  Tue Apr 20 23:16:14  1999
--------------------------------------------------------------------------------
Index   sweep           v(2)            vds#branch      
--------------------------------------------------------------------------------
0	0.000000e+00	-1.00000e-01	4.206341e-11	
1	-5.00000e-02	-1.00000e-01	1.147170e-10	
2	-1.00000e-01	-1.00000e-01	3.125475e-10	
3	-1.50000e-01	-1.00000e-01	8.490439e-10	
4	-2.00000e-01	-1.00000e-01	2.294619e-09	
5	-2.50000e-01	-1.00000e-01	6.151039e-09	
6	-3.00000e-01	-1.00000e-01	1.628852e-08	
7	-3.50000e-01	-1.00000e-01	4.240502e-08	
8	-4.00000e-01	-1.00000e-01	1.080617e-07	
9	-4.50000e-01	-1.00000e-01	2.690046e-07	
10	-5.00000e-01	-1.00000e-01	6.534541e-07	
11	-5.50000e-01	-1.00000e-01	1.532386e-06	
12	-6.00000e-01	-1.00000e-01	3.350789e-06	
13	-6.50000e-01	-1.00000e-01	6.500495e-06	
14	-7.00000e-01	-1.00000e-01	1.092740e-05	
15	-7.50000e-01	-1.00000e-01	1.619790e-05	
16	-8.00000e-01	-1.00000e-01	2.185142e-05	
17	-8.50000e-01	-1.00000e-01	2.757138e-05	
18	-9.00000e-01	-1.00000e-01	3.319022e-05	
19	-9.50000e-01	-1.00000e-01	3.864018e-05	
20	-1.00000e+00	-1.00000e-01	4.390645e-05	
21	-1.05000e+00	-1.00000e-01	4.899693e-05	
22	-1.10000e+00	-1.00000e-01	5.392642e-05	
23	-1.15000e+00	-1.00000e-01	5.871123e-05	
24	-1.20000e+00	-1.00000e-01	6.336512e-05	
25	-1.25000e+00	-1.00000e-01	6.789906e-05	
26	-1.30000e+00	-1.00000e-01	7.232166e-05	
27	-1.35000e+00	-1.00000e-01	7.663969e-05	
28	-1.40000e+00	-1.00000e-01	8.085857e-05	
29	-1.45000e+00	-1.00000e-01	8.498273e-05	
30	-1.50000e+00	-1.00000e-01	8.901592e-05	
31	-1.55000e+00	-1.00000e-01	9.296142e-05	
32	-1.60000e+00	-1.00000e-01	9.682215e-05	
33	-1.65000e+00	-1.00000e-01	1.006008e-04	
34	-1.70000e+00	-1.00000e-01	1.042999e-04	
35	-1.75000e+00	-1.00000e-01	1.079217e-04	
36	-1.80000e+00	-1.00000e-01	1.114686e-04	
37	-1.85000e+00	-1.00000e-01	1.149427e-04	
38	-1.90000e+00	-1.00000e-01	1.183460e-04	
39	-1.95000e+00	-1.00000e-01	1.216805e-04	
40	-2.00000e+00	-1.00000e-01	1.249481e-04	
41	-2.05000e+00	-1.00000e-01	1.281508e-04	
42	-2.10000e+00	-1.00000e-01	1.312902e-04	
43	-2.15000e+00	-1.00000e-01	1.343680e-04	
44	-2.20000e+00	-1.00000e-01	1.373861e-04	
45	-2.25000e+00	-1.00000e-01	1.403458e-04	
46	-2.30000e+00	-1.00000e-01	1.432489e-04	
47	-2.35000e+00	-1.00000e-01	1.460967e-04	
48	-2.40000e+00	-1.00000e-01	1.488908e-04	
49	-2.45000e+00	-1.00000e-01	1.516325e-04	
50	-2.50000e+00	-1.00000e-01	1.543231e-04	
51	-2.55000e+00	-1.00000e-01	1.569641e-04	
52	-2.60000e+00	-1.00000e-01	1.595566e-04	
53	-2.65000e+00	-1.00000e-01	1.621020e-04	
54	-2.70000e+00	-1.00000e-01	1.646012e-04	

Index   sweep           v(2)            vds#branch      
--------------------------------------------------------------------------------
55	-2.75000e+00	-1.00000e-01	1.670556e-04	
56	-2.80000e+00	-1.00000e-01	1.694662e-04	
57	-2.85000e+00	-1.00000e-01	1.718340e-04	
58	-2.90000e+00	-1.00000e-01	1.741602e-04	
59	-2.95000e+00	-1.00000e-01	1.764457e-04	
60	-3.00000e+00	-1.00000e-01	1.786915e-04	
61	-3.05000e+00	-1.00000e-01	1.808985e-04	
62	-3.10000e+00	-1.00000e-01	1.830677e-04	
63	-3.15000e+00	-1.00000e-01	1.852000e-04	
64	-3.20000e+00	-1.00000e-01	1.872961e-04	
65	-3.25000e+00	-1.00000e-01	1.893570e-04	
66	-3.30000e+00	-1.00000e-01	1.913834e-04	
67	-3.35000e+00	-1.00000e-01	1.933762e-04	
68	-3.40000e+00	-1.00000e-01	1.953360e-04	
69	-3.45000e+00	-1.00000e-01	1.972636e-04	
70	-3.50000e+00	-1.00000e-01	1.991598e-04	
71	0.000000e+00	-1.00000e-01	1.910461e-12	
72	-5.00000e-02	-1.00000e-01	4.498428e-12	
73	-1.00000e-01	-1.00000e-01	1.223078e-11	
74	-1.50000e-01	-1.00000e-01	3.530966e-11	
75	-2.00000e-01	-1.00000e-01	1.040714e-10	
76	-2.50000e-01	-1.00000e-01	3.083225e-10	
77	-3.00000e-01	-1.00000e-01	9.119453e-10	
78	-3.50000e-01	-1.00000e-01	2.680827e-09	
79	-4.00000e-01	-1.00000e-01	7.794759e-09	
80	-4.50000e-01	-1.00000e-01	2.227939e-08	
81	-5.00000e-01	-1.00000e-01	6.216189e-08	
82	-5.50000e-01	-1.00000e-01	1.683250e-07	
83	-6.00000e-01	-1.00000e-01	4.409715e-07	
84	-6.50000e-01	-1.00000e-01	1.108616e-06	
85	-7.00000e-01	-1.00000e-01	2.591453e-06	
86	-7.50000e-01	-1.00000e-01	5.333777e-06	
87	-8.00000e-01	-1.00000e-01	9.360976e-06	
88	-8.50000e-01	-1.00000e-01	1.425678e-05	
89	-9.00000e-01	-1.00000e-01	1.955377e-05	
90	-9.50000e-01	-1.00000e-01	2.493749e-05	
91	-1.00000e+00	-1.00000e-01	3.024761e-05	
92	-1.05000e+00	-1.00000e-01	3.542130e-05	
93	-1.10000e+00	-1.00000e-01	4.044439e-05	
94	-1.15000e+00	-1.00000e-01	4.532238e-05	
95	-1.20000e+00	-1.00000e-01	5.006606e-05	
96	-1.25000e+00	-1.00000e-01	5.468710e-05	
97	-1.30000e+00	-1.00000e-01	5.919553e-05	
98	-1.35000e+00	-1.00000e-01	6.359908e-05	
99	-1.40000e+00	-1.00000e-01	6.790377e-05	
100	-1.45000e+00	-1.00000e-01	7.211439e-05	
101	-1.50000e+00	-1.00000e-01	7.623482e-05	
102	-1.55000e+00	-1.00000e-01	8.026833e-05	
103	-1.60000e+00	-1.00000e-01	8.421780e-05	
104	-1.65000e+00	-1.00000e-01	8.808580e-05	
105	-1.70000e+00	-1.00000e-01	9.187472e-05	
106	-1.75000e+00	-1.00000e-01	9.558681e-05	
107	-1.80000e+00	-1.00000e-01	9.922421e-05	
108	-1.85000e+00	-1.00000e-01	1.027890e-04	
109	-1.90000e+00	-1.00000e-01	1.062831e-04	
110	-1.95000e+00	-1.00000e-01	1.097084e-04	
111	-2.00000e+00	-1.00000e-01	1.130668e-04	
112	-2.05000e+00	-1.00000e-01	1.163600e-04	

Index   sweep           v(2)            vds#branch      
--------------------------------------------------------------------------------
113	-2.10000e+00	-1.00000e-01	1.195899e-04	
114	-2.15000e+00	-1.00000e-01	1.227579e-04	
115	-2.20000e+00	-1.00000e-01	1.258659e-04	
116	-2.25000e+00	-1.00000e-01	1.289153e-04	
117	-2.30000e+00	-1.00000e-01	1.319076e-04	
118	-2.35000e+00	-1.00000e-01	1.348443e-04	
119	-2.40000e+00	-1.00000e-01	1.377269e-04	
120	-2.45000e+00	-1.00000e-01	1.405566e-04	
121	-2.50000e+00	-1.00000e-01	1.433349e-04	
122	-2.55000e+00	-1.00000e-01	1.460630e-04	
123	-2.60000e+00	-1.00000e-01	1.487421e-04	
124	-2.65000e+00	-1.00000e-01	1.513736e-04	
125	-2.70000e+00	-1.00000e-01	1.539584e-04	
126	-2.75000e+00	-1.00000e-01	1.564978e-04	
127	-2.80000e+00	-1.00000e-01	1.589929e-04	
128	-2.85000e+00	-1.00000e-01	1.614447e-04	
129	-2.90000e+00	-1.00000e-01	1.638543e-04	
130	-2.95000e+00	-1.00000e-01	1.662226e-04	
131	-3.00000e+00	-1.00000e-01	1.685506e-04	
132	-3.05000e+00	-1.00000e-01	1.708392e-04	
133	-3.10000e+00	-1.00000e-01	1.730895e-04	
134	-3.15000e+00	-1.00000e-01	1.753022e-04	
135	-3.20000e+00	-1.00000e-01	1.774781e-04	
136	-3.25000e+00	-1.00000e-01	1.796182e-04	
137	-3.30000e+00	-1.00000e-01	1.817232e-04	
138	-3.35000e+00	-1.00000e-01	1.837940e-04	
139	-3.40000e+00	-1.00000e-01	1.858312e-04	
140	-3.45000e+00	-1.00000e-01	1.878356e-04	
141	-3.50000e+00	-1.00000e-01	1.898080e-04	
142	0.000000e+00	-1.00000e-01	1.197442e-12	
143	-5.00000e-02	-1.00000e-01	1.297989e-12	
144	-1.00000e-01	-1.00000e-01	1.981725e-12	
145	-1.50000e-01	-1.00000e-01	3.861421e-12	
146	-2.00000e-01	-1.00000e-01	9.790071e-12	
147	-2.50000e-01	-1.00000e-01	2.846995e-11	
148	-3.00000e-01	-1.00000e-01	8.721870e-11	
149	-3.50000e-01	-1.00000e-01	2.713945e-10	
150	-4.00000e-01	-1.00000e-01	8.455845e-10	
151	-4.50000e-01	-1.00000e-01	2.618866e-09	
152	-5.00000e-01	-1.00000e-01	8.010968e-09	
153	-5.50000e-01	-1.00000e-01	2.401758e-08	
154	-6.00000e-01	-1.00000e-01	6.996176e-08	
155	-6.50000e-01	-1.00000e-01	1.965877e-07	
156	-7.00000e-01	-1.00000e-01	5.302930e-07	
157	-7.50000e-01	-1.00000e-01	1.353741e-06	
158	-8.00000e-01	-1.00000e-01	3.132475e-06	
159	-8.50000e-01	-1.00000e-01	6.214760e-06	
160	-9.00000e-01	-1.00000e-01	1.043401e-05	
161	-9.50000e-01	-1.00000e-01	1.531544e-05	
162	-1.00000e+00	-1.00000e-01	2.045096e-05	
163	-1.05000e+00	-1.00000e-01	2.560328e-05	
164	-1.10000e+00	-1.00000e-01	3.066519e-05	
165	-1.15000e+00	-1.00000e-01	3.560065e-05	
166	-1.20000e+00	-1.00000e-01	4.040530e-05	
167	-1.25000e+00	-1.00000e-01	4.508588e-05	
168	-1.30000e+00	-1.00000e-01	4.965110e-05	
169	-1.35000e+00	-1.00000e-01	5.410987e-05	
170	-1.40000e+00	-1.00000e-01	5.846927e-05	

Index   sweep           v(2)            vds#branch      
--------------------------------------------------------------------------------
171	-1.45000e+00	-1.00000e-01	6.273473e-05	
172	-1.50000e+00	-1.00000e-01	6.691054e-05	
173	-1.55000e+00	-1.00000e-01	7.100016e-05	
174	-1.60000e+00	-1.00000e-01	7.500653e-05	
175	-1.65000e+00	-1.00000e-01	7.893221e-05	
176	-1.70000e+00	-1.00000e-01	8.277952e-05	
177	-1.75000e+00	-1.00000e-01	8.655063e-05	
178	-1.80000e+00	-1.00000e-01	9.024758e-05	
179	-1.85000e+00	-1.00000e-01	9.387235e-05	
180	-1.90000e+00	-1.00000e-01	9.742682e-05	
181	-1.95000e+00	-1.00000e-01	1.009128e-04	
182	-2.00000e+00	-1.00000e-01	1.043321e-04	
183	-2.05000e+00	-1.00000e-01	1.076865e-04	
184	-2.10000e+00	-1.00000e-01	1.109775e-04	
185	-2.15000e+00	-1.00000e-01	1.142068e-04	
186	-2.20000e+00	-1.00000e-01	1.173761e-04	
187	-2.25000e+00	-1.00000e-01	1.204867e-04	
188	-2.30000e+00	-1.00000e-01	1.235402e-04	
189	-2.35000e+00	-1.00000e-01	1.265381e-04	
190	-2.40000e+00	-1.00000e-01	1.294817e-04	
191	-2.45000e+00	-1.00000e-01	1.323723e-04	
192	-2.50000e+00	-1.00000e-01	1.352113e-04	
193	-2.55000e+00	-1.00000e-01	1.379999e-04	
194	-2.60000e+00	-1.00000e-01	1.407394e-04	
195	-2.65000e+00	-1.00000e-01	1.434309e-04	
196	-2.70000e+00	-1.00000e-01	1.460756e-04	
197	-2.75000e+00	-1.00000e-01	1.486746e-04	
198	-2.80000e+00	-1.00000e-01	1.512290e-04	
199	-2.85000e+00	-1.00000e-01	1.537398e-04	
200	-2.90000e+00	-1.00000e-01	1.562081e-04	
201	-2.95000e+00	-1.00000e-01	1.586349e-04	
202	-3.00000e+00	-1.00000e-01	1.610210e-04	
203	-3.05000e+00	-1.00000e-01	1.633675e-04	
204	-3.10000e+00	-1.00000e-01	1.656752e-04	
205	-3.15000e+00	-1.00000e-01	1.679450e-04	
206	-3.20000e+00	-1.00000e-01	1.701777e-04	
207	-3.25000e+00	-1.00000e-01	1.723743e-04	
208	-3.30000e+00	-1.00000e-01	1.745354e-04	
209	-3.35000e+00	-1.00000e-01	1.766619e-04	
210	-3.40000e+00	-1.00000e-01	1.787544e-04	
211	-3.45000e+00	-1.00000e-01	1.808139e-04	
212	-3.50000e+00	-1.00000e-01	1.828408e-04	
213	0.000000e+00	-1.00000e-01	1.619435e-12	
214	-5.00000e-02	-1.00000e-01	1.630658e-12	
215	-1.00000e-01	-1.00000e-01	1.711838e-12	
216	-1.50000e-01	-1.00000e-01	1.944530e-12	
217	-2.00000e-01	-1.00000e-01	2.708696e-12	
218	-2.50000e-01	-1.00000e-01	5.217200e-12	
219	-3.00000e-01	-1.00000e-01	1.344565e-11	
220	-3.50000e-01	-1.00000e-01	4.040058e-11	
221	-4.00000e-01	-1.00000e-01	1.284873e-10	
222	-4.50000e-01	-1.00000e-01	4.151133e-10	
223	-5.00000e-01	-1.00000e-01	1.340754e-09	
224	-5.50000e-01	-1.00000e-01	4.291653e-09	
225	-6.00000e-01	-1.00000e-01	1.350211e-08	
226	-6.50000e-01	-1.00000e-01	4.134655e-08	
227	-7.00000e-01	-1.00000e-01	1.220319e-07	
228	-7.50000e-01	-1.00000e-01	3.447472e-07	

Index   sweep           v(2)            vds#branch      
--------------------------------------------------------------------------------
229	-8.00000e-01	-1.00000e-01	9.234713e-07	
230	-8.50000e-01	-1.00000e-01	2.269418e-06	
231	-9.00000e-01	-1.00000e-01	4.825535e-06	
232	-9.50000e-01	-1.00000e-01	8.602480e-06	
233	-1.00000e+00	-1.00000e-01	1.317621e-05	
234	-1.05000e+00	-1.00000e-01	1.810334e-05	
235	-1.10000e+00	-1.00000e-01	2.310571e-05	
236	-1.15000e+00	-1.00000e-01	2.805038e-05	
237	-1.20000e+00	-1.00000e-01	3.288793e-05	
238	-1.25000e+00	-1.00000e-01	3.760737e-05	
239	-1.30000e+00	-1.00000e-01	4.221219e-05	
240	-1.35000e+00	-1.00000e-01	4.670927e-05	
241	-1.40000e+00	-1.00000e-01	5.110586e-05	
242	-1.45000e+00	-1.00000e-01	5.540834e-05	
243	-1.50000e+00	-1.00000e-01	5.962152e-05	
244	-1.55000e+00	-1.00000e-01	6.374917e-05	
245	-1.60000e+00	-1.00000e-01	6.779436e-05	
246	-1.65000e+00	-1.00000e-01	7.175968e-05	
247	-1.70000e+00	-1.00000e-01	7.564745e-05	
248	-1.75000e+00	-1.00000e-01	7.945976e-05	
249	-1.80000e+00	-1.00000e-01	8.319858e-05	
250	-1.85000e+00	-1.00000e-01	8.686581e-05	
251	-1.90000e+00	-1.00000e-01	9.046325e-05	
252	-1.95000e+00	-1.00000e-01	9.399267e-05	
253	-2.00000e+00	-1.00000e-01	9.745577e-05	
254	-2.05000e+00	-1.00000e-01	1.008542e-04	
255	-2.10000e+00	-1.00000e-01	1.041896e-04	
256	-2.15000e+00	-1.00000e-01	1.074636e-04	
257	-2.20000e+00	-1.00000e-01	1.106776e-04	
258	-2.25000e+00	-1.00000e-01	1.138331e-04	
259	-2.30000e+00	-1.00000e-01	1.169316e-04	
260	-2.35000e+00	-1.00000e-01	1.199746e-04	
261	-2.40000e+00	-1.00000e-01	1.229633e-04	
262	-2.45000e+00	-1.00000e-01	1.258990e-04	
263	-2.50000e+00	-1.00000e-01	1.287831e-04	
264	-2.55000e+00	-1.00000e-01	1.316168e-04	
265	-2.60000e+00	-1.00000e-01	1.344013e-04	
266	-2.65000e+00	-1.00000e-01	1.371378e-04	
267	-2.70000e+00	-1.00000e-01	1.398273e-04	
268	-2.75000e+00	-1.00000e-01	1.424711e-04	
269	-2.80000e+00	-1.00000e-01	1.450701e-04	
270	-2.85000e+00	-1.00000e-01	1.476255e-04	
271	-2.90000e+00	-1.00000e-01	1.501381e-04	
272	-2.95000e+00	-1.00000e-01	1.526091e-04	
273	-3.00000e+00	-1.00000e-01	1.550393e-04	
274	-3.05000e+00	-1.00000e-01	1.574296e-04	
275	-3.10000e+00	-1.00000e-01	1.597809e-04	
276	-3.15000e+00	-1.00000e-01	1.620942e-04	
277	-3.20000e+00	-1.00000e-01	1.643703e-04	
278	-3.25000e+00	-1.00000e-01	1.666099e-04	
279	-3.30000e+00	-1.00000e-01	1.688138e-04	
280	-3.35000e+00	-1.00000e-01	1.709829e-04	
281	-3.40000e+00	-1.00000e-01	1.731179e-04	
282	-3.45000e+00	-1.00000e-01	1.752195e-04	
283	-3.50000e+00	-1.00000e-01	1.772884e-04	
284	0.000000e+00	-1.00000e-01	2.111366e-12	
285	-5.00000e-02	-1.00000e-01	2.113036e-12	
286	-1.00000e-01	-1.00000e-01	2.125757e-12	

Index   sweep           v(2)            vds#branch      
--------------------------------------------------------------------------------
287	-1.50000e-01	-1.00000e-01	2.163520e-12	
288	-2.00000e-01	-1.00000e-01	2.291763e-12	
289	-2.50000e-01	-1.00000e-01	2.727205e-12	
290	-3.00000e-01	-1.00000e-01	4.205223e-12	
291	-3.50000e-01	-1.00000e-01	9.218936e-12	
292	-4.00000e-01	-1.00000e-01	2.620698e-11	
293	-4.50000e-01	-1.00000e-01	8.364786e-11	
294	-5.00000e-01	-1.00000e-01	2.771350e-10	
295	-5.50000e-01	-1.00000e-01	9.244663e-10	
296	-6.00000e-01	-1.00000e-01	3.064443e-09	
297	-6.50000e-01	-1.00000e-01	9.997609e-09	
298	-7.00000e-01	-1.00000e-01	3.175956e-08	
299	-7.50000e-01	-1.00000e-01	9.711826e-08	
300	-8.00000e-01	-1.00000e-01	2.833366e-07	
301	-8.50000e-01	-1.00000e-01	7.814404e-07	
302	-9.00000e-01	-1.00000e-01	1.977498e-06	
303	-9.50000e-01	-1.00000e-01	4.330188e-06	
304	-1.00000e+00	-1.00000e-01	7.906466e-06	
305	-1.05000e+00	-1.00000e-01	1.230791e-05	
306	-1.10000e+00	-1.00000e-01	1.708803e-05	
307	-1.15000e+00	-1.00000e-01	2.196233e-05	
308	-1.20000e+00	-1.00000e-01	2.679383e-05	
309	-1.25000e+00	-1.00000e-01	3.153053e-05	
310	-1.30000e+00	-1.00000e-01	3.615947e-05	
311	-1.35000e+00	-1.00000e-01	4.068242e-05	
312	-1.40000e+00	-1.00000e-01	4.510496e-05	
313	-1.45000e+00	-1.00000e-01	4.943296e-05	
314	-1.50000e+00	-1.00000e-01	5.367194e-05	
315	-1.55000e+00	-1.00000e-01	5.782601e-05	
316	-1.60000e+00	-1.00000e-01	6.189843e-05	
317	-1.65000e+00	-1.00000e-01	6.589184e-05	
318	-1.70000e+00	-1.00000e-01	6.980855e-05	
319	-1.75000e+00	-1.00000e-01	7.365062e-05	
320	-1.80000e+00	-1.00000e-01	7.741994e-05	
321	-1.85000e+00	-1.00000e-01	8.111834e-05	
322	-1.90000e+00	-1.00000e-01	8.474754e-05	
323	-1.95000e+00	-1.00000e-01	8.830924e-05	
324	-2.00000e+00	-1.00000e-01	9.180508e-05	
325	-2.05000e+00	-1.00000e-01	9.523667e-05	
326	-2.10000e+00	-1.00000e-01	9.860557e-05	
327	-2.15000e+00	-1.00000e-01	1.019133e-04	
328	-2.20000e+00	-1.00000e-01	1.051614e-04	
329	-2.25000e+00	-1.00000e-01	1.083512e-04	
330	-2.30000e+00	-1.00000e-01	1.114842e-04	
331	-2.35000e+00	-1.00000e-01	1.145618e-04	
332	-2.40000e+00	-1.00000e-01	1.175852e-04	
333	-2.45000e+00	-1.00000e-01	1.205558e-04	
334	-2.50000e+00	-1.00000e-01	1.234749e-04	
335	-2.55000e+00	-1.00000e-01	1.263436e-04	
336	-2.60000e+00	-1.00000e-01	1.291631e-04	
337	-2.65000e+00	-1.00000e-01	1.319346e-04	
338	-2.70000e+00	-1.00000e-01	1.346593e-04	
339	-2.75000e+00	-1.00000e-01	1.373381e-04	
340	-2.80000e+00	-1.00000e-01	1.399721e-04	
341	-2.85000e+00	-1.00000e-01	1.425625e-04	
342	-2.90000e+00	-1.00000e-01	1.451100e-04	
343	-2.95000e+00	-1.00000e-01	1.476158e-04	
344	-3.00000e+00	-1.00000e-01	1.500808e-04	

Index   sweep           v(2)            vds#branch      
--------------------------------------------------------------------------------
345	-3.05000e+00	-1.00000e-01	1.525058e-04	
346	-3.10000e+00	-1.00000e-01	1.548918e-04	
347	-3.15000e+00	-1.00000e-01	1.572395e-04	
348	-3.20000e+00	-1.00000e-01	1.595499e-04	
349	-3.25000e+00	-1.00000e-01	1.618238e-04	
350	-3.30000e+00	-1.00000e-01	1.640619e-04	
351	-3.35000e+00	-1.00000e-01	1.662650e-04	
352	-3.40000e+00	-1.00000e-01	1.684338e-04	
353	-3.45000e+00	-1.00000e-01	1.705691e-04	
354	-3.50000e+00	-1.00000e-01	1.726716e-04	
355	0.000000e+00	-1.00000e-01	2.610237e-12	
356	-5.00000e-02	-1.00000e-01	2.610533e-12	
357	-1.00000e-01	-1.00000e-01	2.612905e-12	
358	-1.50000e-01	-1.00000e-01	2.620178e-12	
359	-2.00000e-01	-1.00000e-01	2.645663e-12	
360	-2.50000e-01	-1.00000e-01	2.734950e-12	
361	-3.00000e-01	-1.00000e-01	3.047717e-12	
362	-3.50000e-01	-1.00000e-01	4.142980e-12	
363	-4.00000e-01	-1.00000e-01	7.976212e-12	
364	-4.50000e-01	-1.00000e-01	2.137742e-11	
365	-5.00000e-01	-1.00000e-01	6.813507e-11	
366	-5.50000e-01	-1.00000e-01	2.306728e-10	
367	-6.00000e-01	-1.00000e-01	7.918757e-10	
368	-6.50000e-01	-1.00000e-01	2.706284e-09	
369	-7.00000e-01	-1.00000e-01	9.102436e-09	
370	-7.50000e-01	-1.00000e-01	2.977213e-08	
371	-8.00000e-01	-1.00000e-01	9.347874e-08	
372	-8.50000e-01	-1.00000e-01	2.788417e-07	
373	-9.00000e-01	-1.00000e-01	7.819540e-07	
374	-9.50000e-01	-1.00000e-01	1.996477e-06	
375	-1.00000e+00	-1.00000e-01	4.370386e-06	
376	-1.05000e+00	-1.00000e-01	7.933936e-06	
377	-1.10000e+00	-1.00000e-01	1.227409e-05	
378	-1.15000e+00	-1.00000e-01	1.695979e-05	
379	-1.20000e+00	-1.00000e-01	2.172687e-05	
380	-1.25000e+00	-1.00000e-01	2.645171e-05	
381	-1.30000e+00	-1.00000e-01	3.108836e-05	
382	-1.35000e+00	-1.00000e-01	3.562547e-05	
383	-1.40000e+00	-1.00000e-01	4.006444e-05	
384	-1.45000e+00	-1.00000e-01	4.440978e-05	
385	-1.50000e+00	-1.00000e-01	4.866635e-05	
386	-1.55000e+00	-1.00000e-01	5.283870e-05	
387	-1.60000e+00	-1.00000e-01	5.693026e-05	
388	-1.65000e+00	-1.00000e-01	6.094373e-05	
389	-1.70000e+00	-1.00000e-01	6.488141e-05	
390	-1.75000e+00	-1.00000e-01	6.874531e-05	
391	-1.80000e+00	-1.00000e-01	7.253725e-05	
392	-1.85000e+00	-1.00000e-01	7.625899e-05	
393	-1.90000e+00	-1.00000e-01	7.991217e-05	
394	-1.95000e+00	-1.00000e-01	8.349843e-05	
395	-2.00000e+00	-1.00000e-01	8.701934e-05	
396	-2.05000e+00	-1.00000e-01	9.047645e-05	
397	-2.10000e+00	-1.00000e-01	9.387128e-05	
398	-2.15000e+00	-1.00000e-01	9.720529e-05	
399	-2.20000e+00	-1.00000e-01	1.004799e-04	
400	-2.25000e+00	-1.00000e-01	1.036967e-04	
401	-2.30000e+00	-1.00000e-01	1.068568e-04	
402	-2.35000e+00	-1.00000e-01	1.099617e-04	

Index   sweep           v(2)            vds#branch      
--------------------------------------------------------------------------------
403	-2.40000e+00	-1.00000e-01	1.130126e-04	
404	-2.45000e+00	-1.00000e-01	1.160109e-04	
405	-2.50000e+00	-1.00000e-01	1.189578e-04	
406	-2.55000e+00	-1.00000e-01	1.218544e-04	
407	-2.60000e+00	-1.00000e-01	1.247020e-04	
408	-2.65000e+00	-1.00000e-01	1.275016e-04	
409	-2.70000e+00	-1.00000e-01	1.302544e-04	
410	-2.75000e+00	-1.00000e-01	1.329614e-04	
411	-2.80000e+00	-1.00000e-01	1.356237e-04	
412	-2.85000e+00	-1.00000e-01	1.382423e-04	
413	-2.90000e+00	-1.00000e-01	1.408182e-04	
414	-2.95000e+00	-1.00000e-01	1.433522e-04	
415	-3.00000e+00	-1.00000e-01	1.458454e-04	
416	-3.05000e+00	-1.00000e-01	1.482987e-04	
417	-3.10000e+00	-1.00000e-01	1.507128e-04	
418	-3.15000e+00	-1.00000e-01	1.530887e-04	
419	-3.20000e+00	-1.00000e-01	1.554272e-04	
420	-3.25000e+00	-1.00000e-01	1.577291e-04	
421	-3.30000e+00	-1.00000e-01	1.599951e-04	
422	-3.35000e+00	-1.00000e-01	1.622261e-04	
423	-3.40000e+00	-1.00000e-01	1.644228e-04	
424	-3.45000e+00	-1.00000e-01	1.665858e-04	
425	-3.50000e+00	-1.00000e-01	1.687159e-04	
426	0.000000e+00	-1.00000e-01	3.110045e-12	
427	-5.00000e-02	-1.00000e-01	3.110104e-12	
428	-1.00000e-01	-1.00000e-01	3.110593e-12	
429	-1.50000e-01	-1.00000e-01	3.112145e-12	
430	-2.00000e-01	-1.00000e-01	3.117756e-12	
431	-2.50000e-01	-1.00000e-01	3.138040e-12	
432	-3.00000e-01	-1.00000e-01	3.211368e-12	
433	-3.50000e-01	-1.00000e-01	3.476411e-12	
434	-4.00000e-01	-1.00000e-01	4.434106e-12	
435	-4.50000e-01	-1.00000e-01	7.892580e-12	
436	-5.00000e-01	-1.00000e-01	2.036821e-11	
437	-5.50000e-01	-1.00000e-01	6.527739e-11	
438	-6.00000e-01	-1.00000e-01	2.263079e-10	
439	-6.50000e-01	-1.00000e-01	7.995380e-10	
440	-7.00000e-01	-1.00000e-01	2.813402e-09	
441	-7.50000e-01	-1.00000e-01	9.728133e-09	
442	-8.00000e-01	-1.00000e-01	3.260777e-08	
443	-8.50000e-01	-1.00000e-01	1.044329e-07	
444	-9.00000e-01	-1.00000e-01	3.159409e-07	
445	-9.50000e-01	-1.00000e-01	8.910675e-07	
446	-1.00000e+00	-1.00000e-01	2.254188e-06	
447	-1.05000e+00	-1.00000e-01	4.811312e-06	
448	-1.10000e+00	-1.00000e-01	8.485516e-06	
449	-1.15000e+00	-1.00000e-01	1.283190e-05	
450	-1.20000e+00	-1.00000e-01	1.745409e-05	
451	-1.25000e+00	-1.00000e-01	2.212698e-05	
452	-1.30000e+00	-1.00000e-01	2.675064e-05	
453	-1.35000e+00	-1.00000e-01	3.128967e-05	
454	-1.40000e+00	-1.00000e-01	3.573606e-05	
455	-1.45000e+00	-1.00000e-01	4.009140e-05	
456	-1.50000e+00	-1.00000e-01	4.435930e-05	
457	-1.55000e+00	-1.00000e-01	4.854376e-05	
458	-1.60000e+00	-1.00000e-01	5.264842e-05	
459	-1.65000e+00	-1.00000e-01	5.667602e-05	
460	-1.70000e+00	-1.00000e-01	6.062881e-05	

Index   sweep           v(2)            vds#branch      
--------------------------------------------------------------------------------
461	-1.75000e+00	-1.00000e-01	6.450873e-05	
462	-1.80000e+00	-1.00000e-01	6.831755e-05	
463	-1.85000e+00	-1.00000e-01	7.205690e-05	
464	-1.90000e+00	-1.00000e-01	7.572839e-05	
465	-1.95000e+00	-1.00000e-01	7.933356e-05	
466	-2.00000e+00	-1.00000e-01	8.287393e-05	
467	-2.05000e+00	-1.00000e-01	8.635098e-05	
468	-2.10000e+00	-1.00000e-01	8.976618e-05	
469	-2.15000e+00	-1.00000e-01	9.312096e-05	
470	-2.20000e+00	-1.00000e-01	9.641673e-05	
471	-2.25000e+00	-1.00000e-01	9.965487e-05	
472	-2.30000e+00	-1.00000e-01	1.028367e-04	
473	-2.35000e+00	-1.00000e-01	1.059636e-04	
474	-2.40000e+00	-1.00000e-01	1.090367e-04	
475	-2.45000e+00	-1.00000e-01	1.120574e-04	
476	-2.50000e+00	-1.00000e-01	1.150268e-04	
477	-2.55000e+00	-1.00000e-01	1.179461e-04	
478	-2.60000e+00	-1.00000e-01	1.208165e-04	
479	-2.65000e+00	-1.00000e-01	1.236391e-04	
480	-2.70000e+00	-1.00000e-01	1.264150e-04	
481	-2.75000e+00	-1.00000e-01	1.291452e-04	
482	-2.80000e+00	-1.00000e-01	1.318307e-04	
483	-2.85000e+00	-1.00000e-01	1.344726e-04	
484	-2.90000e+00	-1.00000e-01	1.370718e-04	
485	-2.95000e+00	-1.00000e-01	1.396292e-04	
486	-3.00000e+00	-1.00000e-01	1.421458e-04	
487	-3.05000e+00	-1.00000e-01	1.446225e-04	
488	-3.10000e+00	-1.00000e-01	1.470601e-04	
489	-3.15000e+00	-1.00000e-01	1.494594e-04	
490	-3.20000e+00	-1.00000e-01	1.518213e-04	
491	-3.25000e+00	-1.00000e-01	1.541466e-04	
492	-3.30000e+00	-1.00000e-01	1.564360e-04	
493	-3.35000e+00	-1.00000e-01	1.586903e-04	
494	-3.40000e+00	-1.00000e-01	1.609102e-04	
495	-3.45000e+00	-1.00000e-01	1.630965e-04	
496	-3.50000e+00	-1.00000e-01	1.652497e-04	



Total run time: 1.220 seconds.

Current data size = 245760,
Data limits: hard = 2147483647, soft = 2147483647.

