
Circuit: ***  For BSIM3V3  general purpose check (Id-Vg) for Pmosfet***

Warning: Pd = 0 is less than W.
Warning: Ps = 0 is less than W.
Circuit: ***  For BSIM3V3  general purpose check (Id-Vg) for Pmosfet***
Date: Tue Apr 20 23:15:37  1999


         ***  For BSIM3V3  general purpose check (Id-Vg) for Pmosfet***
         DCtransferCurve  Tue Apr 20 23:15:37  1999
--------------------------------------------------------------------------------
Index   sweep           v(2)            vds#branch      
--------------------------------------------------------------------------------
0	0.000000e+00	-1.00000e-01	1.019932e-12	
1	-5.00000e-02	-1.00000e-01	3.294985e-12	
2	-1.00000e-01	-1.00000e-01	1.125051e-11	
3	-1.50000e-01	-1.00000e-01	3.903447e-11	
4	-2.00000e-01	-1.00000e-01	1.358394e-10	
5	-2.50000e-01	-1.00000e-01	4.716728e-10	
6	-3.00000e-01	-1.00000e-01	1.627686e-09	
7	-3.50000e-01	-1.00000e-01	5.552992e-09	
8	-4.00000e-01	-1.00000e-01	1.858492e-08	
9	-4.50000e-01	-1.00000e-01	6.043447e-08	
10	-5.00000e-01	-1.00000e-01	1.894482e-07	
11	-5.50000e-01	-1.00000e-01	5.709760e-07	
12	-6.00000e-01	-1.00000e-01	1.634724e-06	
13	-6.50000e-01	-1.00000e-01	4.224264e-06	
14	-7.00000e-01	-1.00000e-01	9.149857e-06	
15	-7.50000e-01	-1.00000e-01	1.618982e-05	
16	-8.00000e-01	-1.00000e-01	2.438603e-05	
17	-8.50000e-01	-1.00000e-01	3.297174e-05	
18	-9.00000e-01	-1.00000e-01	4.155486e-05	
19	-9.50000e-01	-1.00000e-01	4.998207e-05	
20	-1.00000e+00	-1.00000e-01	5.821243e-05	
21	-1.05000e+00	-1.00000e-01	6.624776e-05	
22	-1.10000e+00	-1.00000e-01	7.410143e-05	
23	-1.15000e+00	-1.00000e-01	8.178614e-05	
24	-1.20000e+00	-1.00000e-01	8.931457e-05	
25	-1.25000e+00	-1.00000e-01	9.669606e-05	
26	-1.30000e+00	-1.00000e-01	1.039373e-04	
27	-1.35000e+00	-1.00000e-01	1.110436e-04	
28	-1.40000e+00	-1.00000e-01	1.180192e-04	
29	-1.45000e+00	-1.00000e-01	1.248676e-04	
30	-1.50000e+00	-1.00000e-01	1.315923e-04	
31	-1.55000e+00	-1.00000e-01	1.381962e-04	
32	-1.60000e+00	-1.00000e-01	1.446824e-04	
33	-1.65000e+00	-1.00000e-01	1.510535e-04	
34	-1.70000e+00	-1.00000e-01	1.573125e-04	
35	-1.75000e+00	-1.00000e-01	1.634619e-04	
36	-1.80000e+00	-1.00000e-01	1.695044e-04	
37	-1.85000e+00	-1.00000e-01	1.754426e-04	
38	-1.90000e+00	-1.00000e-01	1.812788e-04	
39	-1.95000e+00	-1.00000e-01	1.870157e-04	
40	-2.00000e+00	-1.00000e-01	1.926554e-04	
41	-2.05000e+00	-1.00000e-01	1.982003e-04	
42	-2.10000e+00	-1.00000e-01	2.036526e-04	
43	-2.15000e+00	-1.00000e-01	2.090146e-04	
44	-2.20000e+00	-1.00000e-01	2.142882e-04	
45	-2.25000e+00	-1.00000e-01	2.194757e-04	
46	-2.30000e+00	-1.00000e-01	2.245789e-04	
47	-2.35000e+00	-1.00000e-01	2.295998e-04	
48	-2.40000e+00	-1.00000e-01	2.345403e-04	
49	-2.45000e+00	-1.00000e-01	2.394022e-04	
50	-2.50000e+00	-1.00000e-01	2.441873e-04	
51	-2.55000e+00	-1.00000e-01	2.488972e-04	
52	-2.60000e+00	-1.00000e-01	2.535338e-04	
53	-2.65000e+00	-1.00000e-01	2.580986e-04	
54	-2.70000e+00	-1.00000e-01	2.625932e-04	

Index   sweep           v(2)            vds#branch      
--------------------------------------------------------------------------------
55	-2.75000e+00	-1.00000e-01	2.670191e-04	
56	-2.80000e+00	-1.00000e-01	2.713778e-04	
57	-2.85000e+00	-1.00000e-01	2.756708e-04	
58	-2.90000e+00	-1.00000e-01	2.798994e-04	
59	-2.95000e+00	-1.00000e-01	2.840652e-04	
60	-3.00000e+00	-1.00000e-01	2.881692e-04	
61	-3.05000e+00	-1.00000e-01	2.922130e-04	
62	-3.10000e+00	-1.00000e-01	2.961977e-04	
63	-3.15000e+00	-1.00000e-01	3.001246e-04	
64	-3.20000e+00	-1.00000e-01	3.039948e-04	
65	-3.25000e+00	-1.00000e-01	3.078095e-04	
66	-3.30000e+00	-1.00000e-01	3.115699e-04	
67	-3.35000e+00	-1.00000e-01	3.152770e-04	
68	-3.40000e+00	-1.00000e-01	3.189320e-04	
69	-3.45000e+00	-1.00000e-01	3.225357e-04	
70	-3.50000e+00	-1.00000e-01	3.260894e-04	
71	0.000000e+00	-1.00000e-01	6.220581e-13	
72	-5.00000e-02	-1.00000e-01	6.384867e-13	
73	-1.00000e-01	-1.00000e-01	7.939199e-13	
74	-1.50000e-01	-1.00000e-01	1.328134e-12	
75	-2.00000e-01	-1.00000e-01	3.413024e-12	
76	-2.50000e-01	-1.00000e-01	1.154308e-11	
77	-3.00000e-01	-1.00000e-01	4.319509e-11	
78	-3.50000e-01	-1.00000e-01	1.660338e-10	
79	-4.00000e-01	-1.00000e-01	6.398542e-10	
80	-4.50000e-01	-1.00000e-01	2.446482e-09	
81	-5.00000e-01	-1.00000e-01	9.191972e-09	
82	-5.50000e-01	-1.00000e-01	3.351070e-08	
83	-6.00000e-01	-1.00000e-01	1.168780e-07	
84	-6.50000e-01	-1.00000e-01	3.864005e-07	
85	-7.00000e-01	-1.00000e-01	1.198670e-06	
86	-7.50000e-01	-1.00000e-01	3.335032e-06	
87	-8.00000e-01	-1.00000e-01	7.693082e-06	
88	-8.50000e-01	-1.00000e-01	1.421360e-05	
89	-9.00000e-01	-1.00000e-01	2.196585e-05	
90	-9.50000e-01	-1.00000e-01	3.016514e-05	
91	-1.00000e+00	-1.00000e-01	3.841445e-05	
92	-1.05000e+00	-1.00000e-01	4.655817e-05	
93	-1.10000e+00	-1.00000e-01	5.454999e-05	
94	-1.15000e+00	-1.00000e-01	6.238423e-05	
95	-1.20000e+00	-1.00000e-01	7.006690e-05	
96	-1.25000e+00	-1.00000e-01	7.760449e-05	
97	-1.30000e+00	-1.00000e-01	8.500376e-05	
98	-1.35000e+00	-1.00000e-01	9.227073e-05	
99	-1.40000e+00	-1.00000e-01	9.940955e-05	
100	-1.45000e+00	-1.00000e-01	1.064236e-04	
101	-1.50000e+00	-1.00000e-01	1.133158e-04	
102	-1.55000e+00	-1.00000e-01	1.200889e-04	
103	-1.60000e+00	-1.00000e-01	1.267454e-04	
104	-1.65000e+00	-1.00000e-01	1.332880e-04	
105	-1.70000e+00	-1.00000e-01	1.397191e-04	
106	-1.75000e+00	-1.00000e-01	1.460412e-04	
107	-1.80000e+00	-1.00000e-01	1.522567e-04	
108	-1.85000e+00	-1.00000e-01	1.583679e-04	
109	-1.90000e+00	-1.00000e-01	1.643773e-04	
110	-1.95000e+00	-1.00000e-01	1.702872e-04	
111	-2.00000e+00	-1.00000e-01	1.760998e-04	
112	-2.05000e+00	-1.00000e-01	1.818173e-04	

Index   sweep           v(2)            vds#branch      
--------------------------------------------------------------------------------
113	-2.10000e+00	-1.00000e-01	1.874419e-04	
114	-2.15000e+00	-1.00000e-01	1.929756e-04	
115	-2.20000e+00	-1.00000e-01	1.984205e-04	
116	-2.25000e+00	-1.00000e-01	2.037787e-04	
117	-2.30000e+00	-1.00000e-01	2.090520e-04	
118	-2.35000e+00	-1.00000e-01	2.142423e-04	
119	-2.40000e+00	-1.00000e-01	2.193516e-04	
120	-2.45000e+00	-1.00000e-01	2.243815e-04	
121	-2.50000e+00	-1.00000e-01	2.293338e-04	
122	-2.55000e+00	-1.00000e-01	2.342102e-04	
123	-2.60000e+00	-1.00000e-01	2.390124e-04	
124	-2.65000e+00	-1.00000e-01	2.437419e-04	
125	-2.70000e+00	-1.00000e-01	2.484004e-04	
126	-2.75000e+00	-1.00000e-01	2.529892e-04	
127	-2.80000e+00	-1.00000e-01	2.575100e-04	
128	-2.85000e+00	-1.00000e-01	2.619641e-04	
129	-2.90000e+00	-1.00000e-01	2.663530e-04	
130	-2.95000e+00	-1.00000e-01	2.706779e-04	
131	-3.00000e+00	-1.00000e-01	2.749403e-04	
132	-3.05000e+00	-1.00000e-01	2.791413e-04	
133	-3.10000e+00	-1.00000e-01	2.832823e-04	
134	-3.15000e+00	-1.00000e-01	2.873645e-04	
135	-3.20000e+00	-1.00000e-01	2.913890e-04	
136	-3.25000e+00	-1.00000e-01	2.953570e-04	
137	-3.30000e+00	-1.00000e-01	2.992697e-04	
138	-3.35000e+00	-1.00000e-01	3.031281e-04	
139	-3.40000e+00	-1.00000e-01	3.069333e-04	
140	-3.45000e+00	-1.00000e-01	3.106863e-04	
141	-3.50000e+00	-1.00000e-01	3.143881e-04	
142	0.000000e+00	-1.00000e-01	1.110443e-12	
143	-5.00000e-02	-1.00000e-01	1.111078e-12	
144	-1.00000e-01	-1.00000e-01	1.117739e-12	
145	-1.50000e-01	-1.00000e-01	1.142328e-12	
146	-2.00000e-01	-1.00000e-01	1.245030e-12	
147	-2.50000e-01	-1.00000e-01	1.673894e-12	
148	-3.00000e-01	-1.00000e-01	3.463982e-12	
149	-3.50000e-01	-1.00000e-01	1.092927e-11	
150	-4.00000e-01	-1.00000e-01	4.200639e-11	
151	-4.50000e-01	-1.00000e-01	1.709092e-10	
152	-5.00000e-01	-1.00000e-01	7.017248e-10	
153	-5.50000e-01	-1.00000e-01	2.857006e-09	
154	-6.00000e-01	-1.00000e-01	1.138208e-08	
155	-6.50000e-01	-1.00000e-01	4.364584e-08	
156	-7.00000e-01	-1.00000e-01	1.583240e-07	
157	-7.50000e-01	-1.00000e-01	5.373098e-07	
158	-8.00000e-01	-1.00000e-01	1.672722e-06	
159	-8.50000e-01	-1.00000e-01	4.481448e-06	
160	-9.00000e-01	-1.00000e-01	9.607334e-06	
161	-9.50000e-01	-1.00000e-01	1.652778e-05	
162	-1.00000e+00	-1.00000e-01	2.429819e-05	
163	-1.05000e+00	-1.00000e-01	3.232075e-05	
164	-1.10000e+00	-1.00000e-01	4.033016e-05	
165	-1.15000e+00	-1.00000e-01	4.823126e-05	
166	-1.20000e+00	-1.00000e-01	5.599803e-05	
167	-1.25000e+00	-1.00000e-01	6.362803e-05	
168	-1.30000e+00	-1.00000e-01	7.112479e-05	
169	-1.35000e+00	-1.00000e-01	7.849131e-05	
170	-1.40000e+00	-1.00000e-01	8.573236e-05	

Index   sweep           v(2)            vds#branch      
--------------------------------------------------------------------------------
171	-1.45000e+00	-1.00000e-01	9.285146e-05	
172	-1.50000e+00	-1.00000e-01	9.985131e-05	
173	-1.55000e+00	-1.00000e-01	1.067343e-04	
174	-1.60000e+00	-1.00000e-01	1.135027e-04	
175	-1.65000e+00	-1.00000e-01	1.201588e-04	
176	-1.70000e+00	-1.00000e-01	1.267048e-04	
177	-1.75000e+00	-1.00000e-01	1.331429e-04	
178	-1.80000e+00	-1.00000e-01	1.394754e-04	
179	-1.85000e+00	-1.00000e-01	1.457044e-04	
180	-1.90000e+00	-1.00000e-01	1.518322e-04	
181	-1.95000e+00	-1.00000e-01	1.578610e-04	
182	-2.00000e+00	-1.00000e-01	1.637929e-04	
183	-2.05000e+00	-1.00000e-01	1.696299e-04	
184	-2.10000e+00	-1.00000e-01	1.753743e-04	
185	-2.15000e+00	-1.00000e-01	1.810280e-04	
186	-2.20000e+00	-1.00000e-01	1.865929e-04	
187	-2.25000e+00	-1.00000e-01	1.920711e-04	
188	-2.30000e+00	-1.00000e-01	1.974643e-04	
189	-2.35000e+00	-1.00000e-01	2.027745e-04	
190	-2.40000e+00	-1.00000e-01	2.080034e-04	
191	-2.45000e+00	-1.00000e-01	2.131528e-04	
192	-2.50000e+00	-1.00000e-01	2.182244e-04	
193	-2.55000e+00	-1.00000e-01	2.232199e-04	
194	-2.60000e+00	-1.00000e-01	2.281407e-04	
195	-2.65000e+00	-1.00000e-01	2.329886e-04	
196	-2.70000e+00	-1.00000e-01	2.377651e-04	
197	-2.75000e+00	-1.00000e-01	2.424716e-04	
198	-2.80000e+00	-1.00000e-01	2.471095e-04	
199	-2.85000e+00	-1.00000e-01	2.516804e-04	
200	-2.90000e+00	-1.00000e-01	2.561856e-04	
201	-2.95000e+00	-1.00000e-01	2.606264e-04	
202	-3.00000e+00	-1.00000e-01	2.650041e-04	
203	-3.05000e+00	-1.00000e-01	2.693200e-04	
204	-3.10000e+00	-1.00000e-01	2.735753e-04	
205	-3.15000e+00	-1.00000e-01	2.777713e-04	
206	-3.20000e+00	-1.00000e-01	2.819090e-04	
207	-3.25000e+00	-1.00000e-01	2.859897e-04	
208	-3.30000e+00	-1.00000e-01	2.900145e-04	
209	-3.35000e+00	-1.00000e-01	2.939844e-04	
210	-3.40000e+00	-1.00000e-01	2.979006e-04	
211	-3.45000e+00	-1.00000e-01	3.017640e-04	
212	-3.50000e+00	-1.00000e-01	3.055756e-04	
213	0.000000e+00	-1.00000e-01	1.610030e-12	
214	-5.00000e-02	-1.00000e-01	1.610075e-12	
215	-1.00000e-01	-1.00000e-01	1.610580e-12	
216	-1.50000e-01	-1.00000e-01	1.612543e-12	
217	-2.00000e-01	-1.00000e-01	1.621159e-12	
218	-2.50000e-01	-1.00000e-01	1.658961e-12	
219	-3.00000e-01	-1.00000e-01	1.824794e-12	
220	-3.50000e-01	-1.00000e-01	2.552073e-12	
221	-4.00000e-01	-1.00000e-01	5.739620e-12	
222	-4.50000e-01	-1.00000e-01	1.969192e-11	
223	-5.00000e-01	-1.00000e-01	8.059728e-11	
224	-5.50000e-01	-1.00000e-01	3.449816e-10	
225	-6.00000e-01	-1.00000e-01	1.479723e-09	
226	-6.50000e-01	-1.00000e-01	6.243590e-09	
227	-7.00000e-01	-1.00000e-01	2.545868e-08	
228	-7.50000e-01	-1.00000e-01	9.824361e-08	

Index   sweep           v(2)            vds#branch      
--------------------------------------------------------------------------------
229	-8.00000e-01	-1.00000e-01	3.528768e-07	
230	-8.50000e-01	-1.00000e-01	1.162475e-06	
231	-9.00000e-01	-1.00000e-01	3.339969e-06	
232	-9.50000e-01	-1.00000e-01	7.728842e-06	
233	-1.00000e+00	-1.00000e-01	1.411790e-05	
234	-1.05000e+00	-1.00000e-01	2.156965e-05	
235	-1.10000e+00	-1.00000e-01	2.939295e-05	
236	-1.15000e+00	-1.00000e-01	3.726281e-05	
237	-1.20000e+00	-1.00000e-01	4.505582e-05	
238	-1.25000e+00	-1.00000e-01	5.273329e-05	
239	-1.30000e+00	-1.00000e-01	6.028680e-05	
240	-1.35000e+00	-1.00000e-01	6.771687e-05	
241	-1.40000e+00	-1.00000e-01	7.502490e-05	
242	-1.45000e+00	-1.00000e-01	8.221354e-05	
243	-1.50000e+00	-1.00000e-01	8.928586e-05	
244	-1.55000e+00	-1.00000e-01	9.624398e-05	
245	-1.60000e+00	-1.00000e-01	1.030898e-04	
246	-1.65000e+00	-1.00000e-01	1.098254e-04	
247	-1.70000e+00	-1.00000e-01	1.164526e-04	
248	-1.75000e+00	-1.00000e-01	1.229733e-04	
249	-1.80000e+00	-1.00000e-01	1.293898e-04	
250	-1.85000e+00	-1.00000e-01	1.357039e-04	
251	-1.90000e+00	-1.00000e-01	1.419177e-04	
252	-1.95000e+00	-1.00000e-01	1.480333e-04	
253	-2.00000e+00	-1.00000e-01	1.540528e-04	
254	-2.05000e+00	-1.00000e-01	1.599780e-04	
255	-2.10000e+00	-1.00000e-01	1.658111e-04	
256	-2.15000e+00	-1.00000e-01	1.715539e-04	
257	-2.20000e+00	-1.00000e-01	1.772083e-04	
258	-2.25000e+00	-1.00000e-01	1.827763e-04	
259	-2.30000e+00	-1.00000e-01	1.882596e-04	
260	-2.35000e+00	-1.00000e-01	1.936600e-04	
261	-2.40000e+00	-1.00000e-01	1.989793e-04	
262	-2.45000e+00	-1.00000e-01	2.042192e-04	
263	-2.50000e+00	-1.00000e-01	2.093814e-04	
264	-2.55000e+00	-1.00000e-01	2.144674e-04	
265	-2.60000e+00	-1.00000e-01	2.194788e-04	
266	-2.65000e+00	-1.00000e-01	2.244173e-04	
267	-2.70000e+00	-1.00000e-01	2.292842e-04	
268	-2.75000e+00	-1.00000e-01	2.340810e-04	
269	-2.80000e+00	-1.00000e-01	2.388092e-04	
270	-2.85000e+00	-1.00000e-01	2.434702e-04	
271	-2.90000e+00	-1.00000e-01	2.480652e-04	
272	-2.95000e+00	-1.00000e-01	2.525957e-04	
273	-3.00000e+00	-1.00000e-01	2.570629e-04	
274	-3.05000e+00	-1.00000e-01	2.614681e-04	
275	-3.10000e+00	-1.00000e-01	2.658124e-04	
276	-3.15000e+00	-1.00000e-01	2.700971e-04	
277	-3.20000e+00	-1.00000e-01	2.743233e-04	
278	-3.25000e+00	-1.00000e-01	2.784921e-04	
279	-3.30000e+00	-1.00000e-01	2.826047e-04	
280	-3.35000e+00	-1.00000e-01	2.866621e-04	
281	-3.40000e+00	-1.00000e-01	2.906655e-04	
282	-3.45000e+00	-1.00000e-01	2.946157e-04	
283	-3.50000e+00	-1.00000e-01	2.985137e-04	
284	0.000000e+00	-1.00000e-01	2.110003e-12	
285	-5.00000e-02	-1.00000e-01	2.110008e-12	
286	-1.00000e-01	-1.00000e-01	2.110062e-12	

Index   sweep           v(2)            vds#branch      
--------------------------------------------------------------------------------
287	-1.50000e-01	-1.00000e-01	2.110285e-12	
288	-2.00000e-01	-1.00000e-01	2.111303e-12	
289	-2.50000e-01	-1.00000e-01	2.115961e-12	
290	-3.00000e-01	-1.00000e-01	2.137258e-12	
291	-3.50000e-01	-1.00000e-01	2.234637e-12	
292	-4.00000e-01	-1.00000e-01	2.679772e-12	
293	-4.50000e-01	-1.00000e-01	4.713478e-12	
294	-5.00000e-01	-1.00000e-01	1.399433e-11	
295	-5.50000e-01	-1.00000e-01	5.624503e-11	
296	-6.00000e-01	-1.00000e-01	2.476074e-10	
297	-6.50000e-01	-1.00000e-01	1.105168e-09	
298	-7.00000e-01	-1.00000e-01	4.867057e-09	
299	-7.50000e-01	-1.00000e-01	2.072253e-08	
300	-8.00000e-01	-1.00000e-01	8.331261e-08	
301	-8.50000e-01	-1.00000e-01	3.099160e-07	
302	-9.00000e-01	-1.00000e-01	1.050132e-06	
303	-9.50000e-01	-1.00000e-01	3.090715e-06	
304	-1.00000e+00	-1.00000e-01	7.295320e-06	
305	-1.05000e+00	-1.00000e-01	1.350541e-05	
306	-1.10000e+00	-1.00000e-01	2.079813e-05	
307	-1.15000e+00	-1.00000e-01	2.848034e-05	
308	-1.20000e+00	-1.00000e-01	3.622547e-05	
309	-1.25000e+00	-1.00000e-01	4.390836e-05	
310	-1.30000e+00	-1.00000e-01	5.148804e-05	
311	-1.35000e+00	-1.00000e-01	5.895381e-05	
312	-1.40000e+00	-1.00000e-01	6.630435e-05	
313	-1.45000e+00	-1.00000e-01	7.353975e-05	
314	-1.50000e+00	-1.00000e-01	8.066142e-05	
315	-1.55000e+00	-1.00000e-01	8.767179e-05	
316	-1.60000e+00	-1.00000e-01	9.457249e-05	
317	-1.65000e+00	-1.00000e-01	1.013651e-04	
318	-1.70000e+00	-1.00000e-01	1.080513e-04	
319	-1.75000e+00	-1.00000e-01	1.146329e-04	
320	-1.80000e+00	-1.00000e-01	1.211115e-04	
321	-1.85000e+00	-1.00000e-01	1.274891e-04	
322	-1.90000e+00	-1.00000e-01	1.337676e-04	
323	-1.95000e+00	-1.00000e-01	1.399489e-04	
324	-2.00000e+00	-1.00000e-01	1.460349e-04	
325	-2.05000e+00	-1.00000e-01	1.520275e-04	
326	-2.10000e+00	-1.00000e-01	1.579286e-04	
327	-2.15000e+00	-1.00000e-01	1.637401e-04	
328	-2.20000e+00	-1.00000e-01	1.694637e-04	
329	-2.25000e+00	-1.00000e-01	1.751014e-04	
330	-2.30000e+00	-1.00000e-01	1.806548e-04	
331	-2.35000e+00	-1.00000e-01	1.861258e-04	
332	-2.40000e+00	-1.00000e-01	1.915160e-04	
333	-2.45000e+00	-1.00000e-01	1.968270e-04	
334	-2.50000e+00	-1.00000e-01	2.020605e-04	
335	-2.55000e+00	-1.00000e-01	2.072181e-04	
336	-2.60000e+00	-1.00000e-01	2.123013e-04	
337	-2.65000e+00	-1.00000e-01	2.173116e-04	
338	-2.70000e+00	-1.00000e-01	2.222504e-04	
339	-2.75000e+00	-1.00000e-01	2.271193e-04	
340	-2.80000e+00	-1.00000e-01	2.319196e-04	
341	-2.85000e+00	-1.00000e-01	2.366527e-04	
342	-2.90000e+00	-1.00000e-01	2.413199e-04	
343	-2.95000e+00	-1.00000e-01	2.459225e-04	
344	-3.00000e+00	-1.00000e-01	2.504617e-04	

Index   sweep           v(2)            vds#branch      
--------------------------------------------------------------------------------
345	-3.05000e+00	-1.00000e-01	2.549388e-04	
346	-3.10000e+00	-1.00000e-01	2.593550e-04	
347	-3.15000e+00	-1.00000e-01	2.637115e-04	
348	-3.20000e+00	-1.00000e-01	2.680094e-04	
349	-3.25000e+00	-1.00000e-01	2.722498e-04	
350	-3.30000e+00	-1.00000e-01	2.764338e-04	
351	-3.35000e+00	-1.00000e-01	2.805625e-04	
352	-3.40000e+00	-1.00000e-01	2.846368e-04	
353	-3.45000e+00	-1.00000e-01	2.886579e-04	
354	-3.50000e+00	-1.00000e-01	2.926266e-04	
355	0.000000e+00	-1.00000e-01	2.610000e-12	
356	-5.00000e-02	-1.00000e-01	2.610001e-12	
357	-1.00000e-01	-1.00000e-01	2.610008e-12	
358	-1.50000e-01	-1.00000e-01	2.610040e-12	
359	-2.00000e-01	-1.00000e-01	2.610190e-12	
360	-2.50000e-01	-1.00000e-01	2.610901e-12	
361	-3.00000e-01	-1.00000e-01	2.614283e-12	
362	-3.50000e-01	-1.00000e-01	2.630361e-12	
363	-4.00000e-01	-1.00000e-01	2.706772e-12	
364	-4.50000e-01	-1.00000e-01	3.069848e-12	
365	-5.00000e-01	-1.00000e-01	4.794143e-12	
366	-5.50000e-01	-1.00000e-01	1.297367e-11	
367	-6.00000e-01	-1.00000e-01	5.167879e-11	
368	-6.50000e-01	-1.00000e-01	2.338558e-10	
369	-7.00000e-01	-1.00000e-01	1.081705e-09	
370	-7.50000e-01	-1.00000e-01	4.937581e-09	
371	-8.00000e-01	-1.00000e-01	2.172021e-08	
372	-8.50000e-01	-1.00000e-01	8.965859e-08	
373	-9.00000e-01	-1.00000e-01	3.395670e-07	
374	-9.50000e-01	-1.00000e-01	1.158757e-06	
375	-1.00000e+00	-1.00000e-01	3.379161e-06	
376	-1.05000e+00	-1.00000e-01	7.792409e-06	
377	-1.10000e+00	-1.00000e-01	1.409005e-05	
378	-1.15000e+00	-1.00000e-01	2.134820e-05	
379	-1.20000e+00	-1.00000e-01	2.893781e-05	
380	-1.25000e+00	-1.00000e-01	3.657428e-05	
381	-1.30000e+00	-1.00000e-01	4.415019e-05	
382	-1.35000e+00	-1.00000e-01	5.162988e-05	
383	-1.40000e+00	-1.00000e-01	5.900317e-05	
384	-1.45000e+00	-1.00000e-01	6.626787e-05	
385	-1.50000e+00	-1.00000e-01	7.342301e-05	
386	-1.55000e+00	-1.00000e-01	8.046949e-05	
387	-1.60000e+00	-1.00000e-01	8.740910e-05	
388	-1.65000e+00	-1.00000e-01	9.424306e-05	
389	-1.70000e+00	-1.00000e-01	1.009727e-04	
390	-1.75000e+00	-1.00000e-01	1.075995e-04	
391	-1.80000e+00	-1.00000e-01	1.141251e-04	
392	-1.85000e+00	-1.00000e-01	1.205510e-04	
393	-1.90000e+00	-1.00000e-01	1.268791e-04	
394	-1.95000e+00	-1.00000e-01	1.331111e-04	
395	-2.00000e+00	-1.00000e-01	1.392488e-04	
396	-2.05000e+00	-1.00000e-01	1.452939e-04	
397	-2.10000e+00	-1.00000e-01	1.512484e-04	
398	-2.15000e+00	-1.00000e-01	1.571140e-04	
399	-2.20000e+00	-1.00000e-01	1.628925e-04	
400	-2.25000e+00	-1.00000e-01	1.685855e-04	
401	-2.30000e+00	-1.00000e-01	1.741949e-04	
402	-2.35000e+00	-1.00000e-01	1.797223e-04	

Index   sweep           v(2)            vds#branch      
--------------------------------------------------------------------------------
403	-2.40000e+00	-1.00000e-01	1.851693e-04	
404	-2.45000e+00	-1.00000e-01	1.905376e-04	
405	-2.50000e+00	-1.00000e-01	1.958288e-04	
406	-2.55000e+00	-1.00000e-01	2.010443e-04	
407	-2.60000e+00	-1.00000e-01	2.061857e-04	
408	-2.65000e+00	-1.00000e-01	2.112545e-04	
409	-2.70000e+00	-1.00000e-01	2.162521e-04	
410	-2.75000e+00	-1.00000e-01	2.211799e-04	
411	-2.80000e+00	-1.00000e-01	2.260392e-04	
412	-2.85000e+00	-1.00000e-01	2.308315e-04	
413	-2.90000e+00	-1.00000e-01	2.355580e-04	
414	-2.95000e+00	-1.00000e-01	2.402199e-04	
415	-3.00000e+00	-1.00000e-01	2.448186e-04	
416	-3.05000e+00	-1.00000e-01	2.493553e-04	
417	-3.10000e+00	-1.00000e-01	2.538310e-04	
418	-3.15000e+00	-1.00000e-01	2.582471e-04	
419	-3.20000e+00	-1.00000e-01	2.626045e-04	
420	-3.25000e+00	-1.00000e-01	2.669044e-04	
421	-3.30000e+00	-1.00000e-01	2.711479e-04	
422	-3.35000e+00	-1.00000e-01	2.753360e-04	
423	-3.40000e+00	-1.00000e-01	2.794698e-04	
424	-3.45000e+00	-1.00000e-01	2.835501e-04	
425	-3.50000e+00	-1.00000e-01	2.875781e-04	
426	0.000000e+00	-1.00000e-01	3.110000e-12	
427	-5.00000e-02	-1.00000e-01	3.110000e-12	
428	-1.00000e-01	-1.00000e-01	3.110001e-12	
429	-1.50000e-01	-1.00000e-01	3.110006e-12	
430	-2.00000e-01	-1.00000e-01	3.110031e-12	
431	-2.50000e-01	-1.00000e-01	3.110156e-12	
432	-3.00000e-01	-1.00000e-01	3.110769e-12	
433	-3.50000e-01	-1.00000e-01	3.113800e-12	
434	-4.00000e-01	-1.00000e-01	3.128779e-12	
435	-4.50000e-01	-1.00000e-01	3.202798e-12	
436	-5.00000e-01	-1.00000e-01	3.568471e-12	
437	-5.50000e-01	-1.00000e-01	5.373939e-12	
438	-6.00000e-01	-1.00000e-01	1.427690e-11	
439	-6.50000e-01	-1.00000e-01	5.805519e-11	
440	-7.00000e-01	-1.00000e-01	2.720042e-10	
441	-7.50000e-01	-1.00000e-01	1.303844e-09	
442	-8.00000e-01	-1.00000e-01	6.145838e-09	
443	-8.50000e-01	-1.00000e-01	2.771395e-08	
444	-9.00000e-01	-1.00000e-01	1.160182e-07	
445	-9.50000e-01	-1.00000e-01	4.405389e-07	
446	-1.00000e+00	-1.00000e-01	1.483054e-06	
447	-1.05000e+00	-1.00000e-01	4.153308e-06	
448	-1.10000e+00	-1.00000e-01	9.039477e-06	
449	-1.15000e+00	-1.00000e-01	1.556848e-05	
450	-1.20000e+00	-1.00000e-01	2.285290e-05	
451	-1.25000e+00	-1.00000e-01	3.037432e-05	
452	-1.30000e+00	-1.00000e-01	3.791203e-05	
453	-1.35000e+00	-1.00000e-01	4.538465e-05	
454	-1.40000e+00	-1.00000e-01	5.276489e-05	
455	-1.45000e+00	-1.00000e-01	6.004428e-05	
456	-1.50000e+00	-1.00000e-01	6.722029e-05	
457	-1.55000e+00	-1.00000e-01	7.429116e-05	
458	-1.60000e+00	-1.00000e-01	8.125786e-05	
459	-1.65000e+00	-1.00000e-01	8.812153e-05	
460	-1.70000e+00	-1.00000e-01	9.488313e-05	

Index   sweep           v(2)            vds#branch      
--------------------------------------------------------------------------------
461	-1.75000e+00	-1.00000e-01	1.015438e-04	
462	-1.80000e+00	-1.00000e-01	1.081049e-04	
463	-1.85000e+00	-1.00000e-01	1.145680e-04	
464	-1.90000e+00	-1.00000e-01	1.209344e-04	
465	-1.95000e+00	-1.00000e-01	1.272060e-04	
466	-2.00000e+00	-1.00000e-01	1.333843e-04	
467	-2.05000e+00	-1.00000e-01	1.394711e-04	
468	-2.10000e+00	-1.00000e-01	1.454681e-04	
469	-2.15000e+00	-1.00000e-01	1.513769e-04	
470	-2.20000e+00	-1.00000e-01	1.571994e-04	
471	-2.25000e+00	-1.00000e-01	1.629372e-04	
472	-2.30000e+00	-1.00000e-01	1.685919e-04	
473	-2.35000e+00	-1.00000e-01	1.741652e-04	
474	-2.40000e+00	-1.00000e-01	1.796586e-04	
475	-2.45000e+00	-1.00000e-01	1.850738e-04	
476	-2.50000e+00	-1.00000e-01	1.904122e-04	
477	-2.55000e+00	-1.00000e-01	1.956755e-04	
478	-2.60000e+00	-1.00000e-01	2.008649e-04	
479	-2.65000e+00	-1.00000e-01	2.059821e-04	
480	-2.70000e+00	-1.00000e-01	2.110284e-04	
481	-2.75000e+00	-1.00000e-01	2.160052e-04	
482	-2.80000e+00	-1.00000e-01	2.209138e-04	
483	-2.85000e+00	-1.00000e-01	2.257555e-04	
484	-2.90000e+00	-1.00000e-01	2.305316e-04	
485	-2.95000e+00	-1.00000e-01	2.352434e-04	
486	-3.00000e+00	-1.00000e-01	2.398920e-04	
487	-3.05000e+00	-1.00000e-01	2.444787e-04	
488	-3.10000e+00	-1.00000e-01	2.490047e-04	
489	-3.15000e+00	-1.00000e-01	2.534710e-04	
490	-3.20000e+00	-1.00000e-01	2.578788e-04	
491	-3.25000e+00	-1.00000e-01	2.622291e-04	
492	-3.30000e+00	-1.00000e-01	2.665231e-04	
493	-3.35000e+00	-1.00000e-01	2.707616e-04	
494	-3.40000e+00	-1.00000e-01	2.749459e-04	
495	-3.45000e+00	-1.00000e-01	2.790767e-04	
496	-3.50000e+00	-1.00000e-01	2.831552e-04	



Total run time: 1.180 seconds.

Current data size = 241664,
Data limits: hard = 2147483647, soft = 2147483647.

