
Circuit: *****Single NMOS Transistor For BSIM3V3  general purpose check (Id-Vd) ***

Warning: Pd = 0 is less than W.
Warning: Ps = 0 is less than W.
Circuit: *****Single NMOS Transistor For BSIM3V3  general purpose check (Id-Vd) ***
Date: Tue Apr 20 23:12:20  1999


   *****Single NMOS Transistor For BSIM3V3  general purpose check (Id-Vd) ***
   DCtransferCurve  Tue Apr 20 23:12:19  1999
--------------------------------------------------------------------------------
Index   sweep           v(1)            vds#branch      
--------------------------------------------------------------------------------
0	0.000000e+00	0.000000e+00	0.000000e+00	
1	5.000000e-02	0.000000e+00	-4.980109e-08	
2	1.000000e-01	0.000000e+00	-5.899162e-08	
3	1.500000e-01	0.000000e+00	-6.328171e-08	
4	2.000000e-01	0.000000e+00	-6.670395e-08	
5	2.500000e-01	0.000000e+00	-6.977517e-08	
6	3.000000e-01	0.000000e+00	-7.265328e-08	
7	3.500000e-01	0.000000e+00	-7.541426e-08	
8	4.000000e-01	0.000000e+00	-7.810305e-08	
9	4.500000e-01	0.000000e+00	-8.074920e-08	
10	5.000000e-01	0.000000e+00	-8.337341e-08	
11	5.500000e-01	0.000000e+00	-8.599086e-08	
12	6.000000e-01	0.000000e+00	-8.861305e-08	
13	6.500000e-01	0.000000e+00	-9.124896e-08	
14	7.000000e-01	0.000000e+00	-9.390580e-08	
15	7.500000e-01	0.000000e+00	-9.658946e-08	
16	8.000000e-01	0.000000e+00	-9.930486e-08	
17	8.500000e-01	0.000000e+00	-1.020562e-07	
18	9.000000e-01	0.000000e+00	-1.048472e-07	
19	9.500000e-01	0.000000e+00	-1.076809e-07	
20	1.000000e+00	0.000000e+00	-1.105604e-07	
21	1.050000e+00	0.000000e+00	-1.134883e-07	
22	1.100000e+00	0.000000e+00	-1.164668e-07	
23	1.150000e+00	0.000000e+00	-1.194984e-07	
24	1.200000e+00	0.000000e+00	-1.225852e-07	
25	1.250000e+00	0.000000e+00	-1.257290e-07	
26	1.300000e+00	0.000000e+00	-1.289320e-07	
27	1.350000e+00	0.000000e+00	-1.321959e-07	
28	1.400000e+00	0.000000e+00	-1.355226e-07	
29	1.450000e+00	0.000000e+00	-1.389139e-07	
30	1.500000e+00	0.000000e+00	-1.423715e-07	
31	1.550000e+00	0.000000e+00	-1.458971e-07	
32	1.600000e+00	0.000000e+00	-1.494924e-07	
33	1.650000e+00	0.000000e+00	-1.531593e-07	
34	1.700000e+00	0.000000e+00	-1.568993e-07	
35	1.750000e+00	0.000000e+00	-1.607141e-07	
36	1.800000e+00	0.000000e+00	-1.646055e-07	
37	1.850000e+00	0.000000e+00	-1.685752e-07	
38	1.900000e+00	0.000000e+00	-1.726249e-07	
39	1.950000e+00	0.000000e+00	-1.767563e-07	
40	2.000000e+00	0.000000e+00	-1.809712e-07	
41	2.050000e+00	0.000000e+00	-1.852714e-07	
42	2.100000e+00	0.000000e+00	-1.896586e-07	
43	2.150000e+00	0.000000e+00	-1.941346e-07	
44	2.200000e+00	0.000000e+00	-1.987013e-07	
45	2.250000e+00	0.000000e+00	-2.033604e-07	
46	2.300000e+00	0.000000e+00	-2.081140e-07	
47	2.350000e+00	0.000000e+00	-2.129638e-07	
48	2.400000e+00	0.000000e+00	-2.179118e-07	
49	2.450000e+00	0.000000e+00	-2.229600e-07	
50	2.500000e+00	0.000000e+00	-2.281102e-07	
51	2.550000e+00	0.000000e+00	-2.333646e-07	
52	2.600000e+00	0.000000e+00	-2.387252e-07	
53	2.650000e+00	0.000000e+00	-2.441940e-07	
54	2.700000e+00	0.000000e+00	-2.497732e-07	

Index   sweep           v(1)            vds#branch      
--------------------------------------------------------------------------------
55	2.750000e+00	0.000000e+00	-2.554648e-07	
56	2.800000e+00	0.000000e+00	-2.612711e-07	
57	2.850000e+00	0.000000e+00	-2.671942e-07	
58	2.900000e+00	0.000000e+00	-2.732364e-07	
59	2.950000e+00	0.000000e+00	-2.794000e-07	
60	3.000000e+00	0.000000e+00	-2.856872e-07	
61	3.050000e+00	0.000000e+00	-2.921005e-07	
62	3.100000e+00	0.000000e+00	-2.986422e-07	
63	3.150000e+00	0.000000e+00	-3.053148e-07	
64	3.200000e+00	0.000000e+00	-3.121206e-07	
65	3.250000e+00	0.000000e+00	-3.190623e-07	
66	3.300000e+00	0.000000e+00	-3.261423e-07	
67	3.350000e+00	0.000000e+00	-3.333633e-07	
68	3.400000e+00	0.000000e+00	-3.407279e-07	
69	3.450000e+00	0.000000e+00	-3.482388e-07	
70	3.500000e+00	0.000000e+00	-3.558987e-07	
71	0.000000e+00	5.000000e-01	0.000000e+00	
72	5.000000e-02	5.000000e-01	-4.715561e-05	
73	1.000000e-01	5.000000e-01	-8.140403e-05	
74	1.500000e-01	5.000000e-01	-1.041675e-04	
75	2.000000e-01	5.000000e-01	-1.178035e-04	
76	2.500000e-01	5.000000e-01	-1.260387e-04	
77	3.000000e-01	5.000000e-01	-1.318895e-04	
78	3.500000e-01	5.000000e-01	-1.366158e-04	
79	4.000000e-01	5.000000e-01	-1.406748e-04	
80	4.500000e-01	5.000000e-01	-1.442771e-04	
81	5.000000e-01	5.000000e-01	-1.475440e-04	
82	5.500000e-01	5.000000e-01	-1.505547e-04	
83	6.000000e-01	5.000000e-01	-1.533646e-04	
84	6.500000e-01	5.000000e-01	-1.560144e-04	
85	7.000000e-01	5.000000e-01	-1.585345e-04	
86	7.500000e-01	5.000000e-01	-1.609483e-04	
87	8.000000e-01	5.000000e-01	-1.632744e-04	
88	8.500000e-01	5.000000e-01	-1.655272e-04	
89	9.000000e-01	5.000000e-01	-1.677186e-04	
90	9.500000e-01	5.000000e-01	-1.698582e-04	
91	1.000000e+00	5.000000e-01	-1.719539e-04	
92	1.050000e+00	5.000000e-01	-1.740122e-04	
93	1.100000e+00	5.000000e-01	-1.760387e-04	
94	1.150000e+00	5.000000e-01	-1.780379e-04	
95	1.200000e+00	5.000000e-01	-1.800140e-04	
96	1.250000e+00	5.000000e-01	-1.819701e-04	
97	1.300000e+00	5.000000e-01	-1.839094e-04	
98	1.350000e+00	5.000000e-01	-1.858341e-04	
99	1.400000e+00	5.000000e-01	-1.877467e-04	
100	1.450000e+00	5.000000e-01	-1.896489e-04	
101	1.500000e+00	5.000000e-01	-1.915425e-04	
102	1.550000e+00	5.000000e-01	-1.934290e-04	
103	1.600000e+00	5.000000e-01	-1.953097e-04	
104	1.650000e+00	5.000000e-01	-1.971856e-04	
105	1.700000e+00	5.000000e-01	-1.990580e-04	
106	1.750000e+00	5.000000e-01	-2.009277e-04	
107	1.800000e+00	5.000000e-01	-2.027955e-04	
108	1.850000e+00	5.000000e-01	-2.046622e-04	
109	1.900000e+00	5.000000e-01	-2.065286e-04	
110	1.950000e+00	5.000000e-01	-2.083951e-04	
111	2.000000e+00	5.000000e-01	-2.102624e-04	
112	2.050000e+00	5.000000e-01	-2.121310e-04	

Index   sweep           v(1)            vds#branch      
--------------------------------------------------------------------------------
113	2.100000e+00	5.000000e-01	-2.140013e-04	
114	2.150000e+00	5.000000e-01	-2.158737e-04	
115	2.200000e+00	5.000000e-01	-2.177488e-04	
116	2.250000e+00	5.000000e-01	-2.196267e-04	
117	2.300000e+00	5.000000e-01	-2.215078e-04	
118	2.350000e+00	5.000000e-01	-2.233925e-04	
119	2.400000e+00	5.000000e-01	-2.252810e-04	
120	2.450000e+00	5.000000e-01	-2.271736e-04	
121	2.500000e+00	5.000000e-01	-2.290705e-04	
122	2.550000e+00	5.000000e-01	-2.309719e-04	
123	2.600000e+00	5.000000e-01	-2.328781e-04	
124	2.650000e+00	5.000000e-01	-2.347892e-04	
125	2.700000e+00	5.000000e-01	-2.367054e-04	
126	2.750000e+00	5.000000e-01	-2.386269e-04	
127	2.800000e+00	5.000000e-01	-2.405538e-04	
128	2.850000e+00	5.000000e-01	-2.424863e-04	
129	2.900000e+00	5.000000e-01	-2.444245e-04	
130	2.950000e+00	5.000000e-01	-2.463686e-04	
131	3.000000e+00	5.000000e-01	-2.483186e-04	
132	3.050000e+00	5.000000e-01	-2.502748e-04	
133	3.100000e+00	5.000000e-01	-2.522371e-04	
134	3.150000e+00	5.000000e-01	-2.542057e-04	
135	3.200000e+00	5.000000e-01	-2.561807e-04	
136	3.250000e+00	5.000000e-01	-2.581621e-04	
137	3.300000e+00	5.000000e-01	-2.601502e-04	
138	3.350000e+00	5.000000e-01	-2.621449e-04	
139	3.400000e+00	5.000000e-01	-2.641463e-04	
140	3.450000e+00	5.000000e-01	-2.661544e-04	
141	3.500000e+00	5.000000e-01	-2.681695e-04	
142	0.000000e+00	1.000000e+00	0.000000e+00	
143	5.000000e-02	1.000000e+00	-1.120900e-04	
144	1.000000e-01	1.000000e+00	-2.115892e-04	
145	1.500000e-01	1.000000e+00	-2.991476e-04	
146	2.000000e-01	1.000000e+00	-3.753794e-04	
147	2.500000e-01	1.000000e+00	-4.408738e-04	
148	3.000000e-01	1.000000e+00	-4.962153e-04	
149	3.500000e-01	1.000000e+00	-5.420304e-04	
150	4.000000e-01	1.000000e+00	-5.790964e-04	
151	4.500000e-01	1.000000e+00	-6.085453e-04	
152	5.000000e-01	1.000000e+00	-6.320007e-04	
153	5.500000e-01	1.000000e+00	-6.512203e-04	
154	6.000000e-01	1.000000e+00	-6.675284e-04	
155	6.500000e-01	1.000000e+00	-6.817408e-04	
156	7.000000e-01	1.000000e+00	-6.943618e-04	
157	7.500000e-01	1.000000e+00	-7.057301e-04	
158	8.000000e-01	1.000000e+00	-7.160888e-04	
159	8.500000e-01	1.000000e+00	-7.256204e-04	
160	9.000000e-01	1.000000e+00	-7.344655e-04	
161	9.500000e-01	1.000000e+00	-7.427347e-04	
162	1.000000e+00	1.000000e+00	-7.505164e-04	
163	1.050000e+00	1.000000e+00	-7.578817e-04	
164	1.100000e+00	1.000000e+00	-7.648891e-04	
165	1.150000e+00	1.000000e+00	-7.715868e-04	
166	1.200000e+00	1.000000e+00	-7.780147e-04	
167	1.250000e+00	1.000000e+00	-7.842065e-04	
168	1.300000e+00	1.000000e+00	-7.901907e-04	
169	1.350000e+00	1.000000e+00	-7.959914e-04	
170	1.400000e+00	1.000000e+00	-8.016294e-04	

Index   sweep           v(1)            vds#branch      
--------------------------------------------------------------------------------
171	1.450000e+00	1.000000e+00	-8.071224e-04	
172	1.500000e+00	1.000000e+00	-8.124860e-04	
173	1.550000e+00	1.000000e+00	-8.177336e-04	
174	1.600000e+00	1.000000e+00	-8.228770e-04	
175	1.650000e+00	1.000000e+00	-8.279264e-04	
176	1.700000e+00	1.000000e+00	-8.328910e-04	
177	1.750000e+00	1.000000e+00	-8.377787e-04	
178	1.800000e+00	1.000000e+00	-8.425969e-04	
179	1.850000e+00	1.000000e+00	-8.473518e-04	
180	1.900000e+00	1.000000e+00	-8.520491e-04	
181	1.950000e+00	1.000000e+00	-8.566939e-04	
182	2.000000e+00	1.000000e+00	-8.612909e-04	
183	2.050000e+00	1.000000e+00	-8.658441e-04	
184	2.100000e+00	1.000000e+00	-8.703574e-04	
185	2.150000e+00	1.000000e+00	-8.748341e-04	
186	2.200000e+00	1.000000e+00	-8.792773e-04	
187	2.250000e+00	1.000000e+00	-8.836899e-04	
188	2.300000e+00	1.000000e+00	-8.880743e-04	
189	2.350000e+00	1.000000e+00	-8.924330e-04	
190	2.400000e+00	1.000000e+00	-8.967681e-04	
191	2.450000e+00	1.000000e+00	-9.010815e-04	
192	2.500000e+00	1.000000e+00	-9.053751e-04	
193	2.550000e+00	1.000000e+00	-9.096505e-04	
194	2.600000e+00	1.000000e+00	-9.139094e-04	
195	2.650000e+00	1.000000e+00	-9.181531e-04	
196	2.700000e+00	1.000000e+00	-9.223829e-04	
197	2.750000e+00	1.000000e+00	-9.266001e-04	
198	2.800000e+00	1.000000e+00	-9.308058e-04	
199	2.850000e+00	1.000000e+00	-9.350010e-04	
200	2.900000e+00	1.000000e+00	-9.391868e-04	
201	2.950000e+00	1.000000e+00	-9.433641e-04	
202	3.000000e+00	1.000000e+00	-9.475337e-04	
203	3.050000e+00	1.000000e+00	-9.516964e-04	
204	3.100000e+00	1.000000e+00	-9.558530e-04	
205	3.150000e+00	1.000000e+00	-9.600042e-04	
206	3.200000e+00	1.000000e+00	-9.641506e-04	
207	3.250000e+00	1.000000e+00	-9.682928e-04	
208	3.300000e+00	1.000000e+00	-9.724315e-04	
209	3.350000e+00	1.000000e+00	-9.765672e-04	
210	3.400000e+00	1.000000e+00	-9.807003e-04	
211	3.450000e+00	1.000000e+00	-9.848314e-04	
212	3.500000e+00	1.000000e+00	-9.889610e-04	
213	0.000000e+00	1.500000e+00	0.000000e+00	
214	5.000000e-02	1.500000e+00	-1.448454e-04	
215	1.000000e-01	1.500000e+00	-2.789587e-04	
216	1.500000e-01	1.500000e+00	-4.027572e-04	
217	2.000000e-01	1.500000e+00	-5.166377e-04	
218	2.500000e-01	1.500000e+00	-6.209779e-04	
219	3.000000e-01	1.500000e+00	-7.161386e-04	
220	3.500000e-01	1.500000e+00	-8.024655e-04	
221	4.000000e-01	1.500000e+00	-8.802923e-04	
222	4.500000e-01	1.500000e+00	-9.499457e-04	
223	5.000000e-01	1.500000e+00	-1.011753e-03	
224	5.500000e-01	1.500000e+00	-1.066062e-03	
225	6.000000e-01	1.500000e+00	-1.113270e-03	
226	6.500000e-01	1.500000e+00	-1.153907e-03	
227	7.000000e-01	1.500000e+00	-1.188733e-03	
228	7.500000e-01	1.500000e+00	-1.218758e-03	

Index   sweep           v(1)            vds#branch      
--------------------------------------------------------------------------------
229	8.000000e-01	1.500000e+00	-1.245021e-03	
230	8.500000e-01	1.500000e+00	-1.268356e-03	
231	9.000000e-01	1.500000e+00	-1.289357e-03	
232	9.500000e-01	1.500000e+00	-1.308451e-03	
233	1.000000e+00	1.500000e+00	-1.325958e-03	
234	1.050000e+00	1.500000e+00	-1.342131e-03	
235	1.100000e+00	1.500000e+00	-1.357170e-03	
236	1.150000e+00	1.500000e+00	-1.371238e-03	
237	1.200000e+00	1.500000e+00	-1.384469e-03	
238	1.250000e+00	1.500000e+00	-1.396974e-03	
239	1.300000e+00	1.500000e+00	-1.408846e-03	
240	1.350000e+00	1.500000e+00	-1.420163e-03	
241	1.400000e+00	1.500000e+00	-1.430990e-03	
242	1.450000e+00	1.500000e+00	-1.441384e-03	
243	1.500000e+00	1.500000e+00	-1.451394e-03	
244	1.550000e+00	1.500000e+00	-1.461059e-03	
245	1.600000e+00	1.500000e+00	-1.470417e-03	
246	1.650000e+00	1.500000e+00	-1.479498e-03	
247	1.700000e+00	1.500000e+00	-1.488330e-03	
248	1.750000e+00	1.500000e+00	-1.496936e-03	
249	1.800000e+00	1.500000e+00	-1.505338e-03	
250	1.850000e+00	1.500000e+00	-1.513553e-03	
251	1.900000e+00	1.500000e+00	-1.521600e-03	
252	1.950000e+00	1.500000e+00	-1.529491e-03	
253	2.000000e+00	1.500000e+00	-1.537241e-03	
254	2.050000e+00	1.500000e+00	-1.544862e-03	
255	2.100000e+00	1.500000e+00	-1.552363e-03	
256	2.150000e+00	1.500000e+00	-1.559754e-03	
257	2.200000e+00	1.500000e+00	-1.567044e-03	
258	2.250000e+00	1.500000e+00	-1.574241e-03	
259	2.300000e+00	1.500000e+00	-1.581352e-03	
260	2.350000e+00	1.500000e+00	-1.588382e-03	
261	2.400000e+00	1.500000e+00	-1.595339e-03	
262	2.450000e+00	1.500000e+00	-1.602228e-03	
263	2.500000e+00	1.500000e+00	-1.609052e-03	
264	2.550000e+00	1.500000e+00	-1.615818e-03	
265	2.600000e+00	1.500000e+00	-1.622528e-03	
266	2.650000e+00	1.500000e+00	-1.629188e-03	
267	2.700000e+00	1.500000e+00	-1.635799e-03	
268	2.750000e+00	1.500000e+00	-1.642366e-03	
269	2.800000e+00	1.500000e+00	-1.648892e-03	
270	2.850000e+00	1.500000e+00	-1.655379e-03	
271	2.900000e+00	1.500000e+00	-1.661830e-03	
272	2.950000e+00	1.500000e+00	-1.668247e-03	
273	3.000000e+00	1.500000e+00	-1.674633e-03	
274	3.050000e+00	1.500000e+00	-1.680989e-03	
275	3.100000e+00	1.500000e+00	-1.687318e-03	
276	3.150000e+00	1.500000e+00	-1.693622e-03	
277	3.200000e+00	1.500000e+00	-1.699901e-03	
278	3.250000e+00	1.500000e+00	-1.706158e-03	
279	3.300000e+00	1.500000e+00	-1.712394e-03	
280	3.350000e+00	1.500000e+00	-1.718610e-03	
281	3.400000e+00	1.500000e+00	-1.724809e-03	
282	3.450000e+00	1.500000e+00	-1.730990e-03	
283	3.500000e+00	1.500000e+00	-1.737156e-03	
284	0.000000e+00	2.000000e+00	0.000000e+00	
285	5.000000e-02	2.000000e+00	-1.642178e-04	
286	1.000000e-01	2.000000e+00	-3.193025e-04	

Index   sweep           v(1)            vds#branch      
--------------------------------------------------------------------------------
287	1.500000e-01	2.000000e+00	-4.655389e-04	
288	2.000000e-01	2.000000e+00	-6.032001e-04	
289	2.500000e-01	2.000000e+00	-7.325483e-04	
290	3.000000e-01	2.000000e+00	-8.538354e-04	
291	3.500000e-01	2.000000e+00	-9.673037e-04	
292	4.000000e-01	2.000000e+00	-1.073186e-03	
293	4.500000e-01	2.000000e+00	-1.171708e-03	
294	5.000000e-01	2.000000e+00	-1.263087e-03	
295	5.500000e-01	2.000000e+00	-1.347532e-03	
296	6.000000e-01	2.000000e+00	-1.425251e-03	
297	6.500000e-01	2.000000e+00	-1.496446e-03	
298	7.000000e-01	2.000000e+00	-1.561321e-03	
299	7.500000e-01	2.000000e+00	-1.620088e-03	
300	8.000000e-01	2.000000e+00	-1.672984e-03	
301	8.500000e-01	2.000000e+00	-1.720307e-03	
302	9.000000e-01	2.000000e+00	-1.762474e-03	
303	9.500000e-01	2.000000e+00	-1.800081e-03	
304	1.000000e+00	2.000000e+00	-1.833842e-03	
305	1.050000e+00	2.000000e+00	-1.864439e-03	
306	1.100000e+00	2.000000e+00	-1.892416e-03	
307	1.150000e+00	2.000000e+00	-1.918180e-03	
308	1.200000e+00	2.000000e+00	-1.942049e-03	
309	1.250000e+00	2.000000e+00	-1.964281e-03	
310	1.300000e+00	2.000000e+00	-1.985086e-03	
311	1.350000e+00	2.000000e+00	-2.004646e-03	
312	1.400000e+00	2.000000e+00	-2.023112e-03	
313	1.450000e+00	2.000000e+00	-2.040614e-03	
314	1.500000e+00	2.000000e+00	-2.057262e-03	
315	1.550000e+00	2.000000e+00	-2.073153e-03	
316	1.600000e+00	2.000000e+00	-2.088368e-03	
317	1.650000e+00	2.000000e+00	-2.102978e-03	
318	1.700000e+00	2.000000e+00	-2.117046e-03	
319	1.750000e+00	2.000000e+00	-2.130625e-03	
320	1.800000e+00	2.000000e+00	-2.143762e-03	
321	1.850000e+00	2.000000e+00	-2.156499e-03	
322	1.900000e+00	2.000000e+00	-2.168873e-03	
323	1.950000e+00	2.000000e+00	-2.180916e-03	
324	2.000000e+00	2.000000e+00	-2.192657e-03	
325	2.050000e+00	2.000000e+00	-2.204122e-03	
326	2.100000e+00	2.000000e+00	-2.215332e-03	
327	2.150000e+00	2.000000e+00	-2.226310e-03	
328	2.200000e+00	2.000000e+00	-2.237074e-03	
329	2.250000e+00	2.000000e+00	-2.247639e-03	
330	2.300000e+00	2.000000e+00	-2.258022e-03	
331	2.350000e+00	2.000000e+00	-2.268236e-03	
332	2.400000e+00	2.000000e+00	-2.278292e-03	
333	2.450000e+00	2.000000e+00	-2.288204e-03	
334	2.500000e+00	2.000000e+00	-2.297980e-03	
335	2.550000e+00	2.000000e+00	-2.307630e-03	
336	2.600000e+00	2.000000e+00	-2.317162e-03	
337	2.650000e+00	2.000000e+00	-2.326586e-03	
338	2.700000e+00	2.000000e+00	-2.335907e-03	
339	2.750000e+00	2.000000e+00	-2.345133e-03	
340	2.800000e+00	2.000000e+00	-2.354269e-03	
341	2.850000e+00	2.000000e+00	-2.363321e-03	
342	2.900000e+00	2.000000e+00	-2.372295e-03	
343	2.950000e+00	2.000000e+00	-2.381196e-03	
344	3.000000e+00	2.000000e+00	-2.390027e-03	

Index   sweep           v(1)            vds#branch      
--------------------------------------------------------------------------------
345	3.050000e+00	2.000000e+00	-2.398793e-03	
346	3.100000e+00	2.000000e+00	-2.407499e-03	
347	3.150000e+00	2.000000e+00	-2.416146e-03	
348	3.200000e+00	2.000000e+00	-2.424740e-03	
349	3.250000e+00	2.000000e+00	-2.433283e-03	
350	3.300000e+00	2.000000e+00	-2.441778e-03	
351	3.350000e+00	2.000000e+00	-2.450228e-03	
352	3.400000e+00	2.000000e+00	-2.458635e-03	
353	3.450000e+00	2.000000e+00	-2.467002e-03	
354	3.500000e+00	2.000000e+00	-2.475331e-03	
355	0.000000e+00	2.500000e+00	0.000000e+00	
356	5.000000e-02	2.500000e+00	-1.763837e-04	
357	1.000000e-01	2.500000e+00	-3.449122e-04	
358	1.500000e-01	2.500000e+00	-5.057890e-04	
359	2.000000e-01	2.500000e+00	-6.592105e-04	
360	2.500000e-01	2.500000e+00	-8.053668e-04	
361	3.000000e-01	2.500000e+00	-9.444412e-04	
362	3.500000e-01	2.500000e+00	-1.076611e-03	
363	4.000000e-01	2.500000e+00	-1.202049e-03	
364	4.500000e-01	2.500000e+00	-1.320921e-03	
365	5.000000e-01	2.500000e+00	-1.433387e-03	
366	5.500000e-01	2.500000e+00	-1.539604e-03	
367	6.000000e-01	2.500000e+00	-1.639724e-03	
368	6.500000e-01	2.500000e+00	-1.733893e-03	
369	7.000000e-01	2.500000e+00	-1.822256e-03	
370	7.500000e-01	2.500000e+00	-1.904952e-03	
371	8.000000e-01	2.500000e+00	-1.982118e-03	
372	8.500000e-01	2.500000e+00	-2.053891e-03	
373	9.000000e-01	2.500000e+00	-2.120408e-03	
374	9.500000e-01	2.500000e+00	-2.181809e-03	
375	1.000000e+00	2.500000e+00	-2.238249e-03	
376	1.050000e+00	2.500000e+00	-2.289917e-03	
377	1.100000e+00	2.500000e+00	-2.337071e-03	
378	1.150000e+00	2.500000e+00	-2.380088e-03	
379	1.200000e+00	2.500000e+00	-2.419462e-03	
380	1.250000e+00	2.500000e+00	-2.455731e-03	
381	1.300000e+00	2.500000e+00	-2.489364e-03	
382	1.350000e+00	2.500000e+00	-2.520729e-03	
383	1.400000e+00	2.500000e+00	-2.550103e-03	
384	1.450000e+00	2.500000e+00	-2.577715e-03	
385	1.500000e+00	2.500000e+00	-2.603756e-03	
386	1.550000e+00	2.500000e+00	-2.628392e-03	
387	1.600000e+00	2.500000e+00	-2.651773e-03	
388	1.650000e+00	2.500000e+00	-2.674028e-03	
389	1.700000e+00	2.500000e+00	-2.695271e-03	
390	1.750000e+00	2.500000e+00	-2.715603e-03	
391	1.800000e+00	2.500000e+00	-2.735114e-03	
392	1.850000e+00	2.500000e+00	-2.753883e-03	
393	1.900000e+00	2.500000e+00	-2.771978e-03	
394	1.950000e+00	2.500000e+00	-2.789461e-03	
395	2.000000e+00	2.500000e+00	-2.806387e-03	
396	2.050000e+00	2.500000e+00	-2.822804e-03	
397	2.100000e+00	2.500000e+00	-2.838756e-03	
398	2.150000e+00	2.500000e+00	-2.854281e-03	
399	2.200000e+00	2.500000e+00	-2.869414e-03	
400	2.250000e+00	2.500000e+00	-2.884186e-03	
401	2.300000e+00	2.500000e+00	-2.898625e-03	
402	2.350000e+00	2.500000e+00	-2.912756e-03	

Index   sweep           v(1)            vds#branch      
--------------------------------------------------------------------------------
403	2.400000e+00	2.500000e+00	-2.926603e-03	
404	2.450000e+00	2.500000e+00	-2.940186e-03	
405	2.500000e+00	2.500000e+00	-2.953524e-03	
406	2.550000e+00	2.500000e+00	-2.966634e-03	
407	2.600000e+00	2.500000e+00	-2.979532e-03	
408	2.650000e+00	2.500000e+00	-2.992232e-03	
409	2.700000e+00	2.500000e+00	-3.004748e-03	
410	2.750000e+00	2.500000e+00	-3.017091e-03	
411	2.800000e+00	2.500000e+00	-3.029272e-03	
412	2.850000e+00	2.500000e+00	-3.041302e-03	
413	2.900000e+00	2.500000e+00	-3.053190e-03	
414	2.950000e+00	2.500000e+00	-3.064945e-03	
415	3.000000e+00	2.500000e+00	-3.076575e-03	
416	3.050000e+00	2.500000e+00	-3.088087e-03	
417	3.100000e+00	2.500000e+00	-3.099488e-03	
418	3.150000e+00	2.500000e+00	-3.110784e-03	
419	3.200000e+00	2.500000e+00	-3.121983e-03	
420	3.250000e+00	2.500000e+00	-3.133088e-03	
421	3.300000e+00	2.500000e+00	-3.144106e-03	
422	3.350000e+00	2.500000e+00	-3.155041e-03	
423	3.400000e+00	2.500000e+00	-3.165897e-03	
424	3.450000e+00	2.500000e+00	-3.176680e-03	
425	3.500000e+00	2.500000e+00	-3.187392e-03	
426	0.000000e+00	3.000000e+00	0.000000e+00	
427	5.000000e-02	3.000000e+00	-1.842534e-04	
428	1.000000e-01	3.000000e+00	-3.616713e-04	
429	1.500000e-01	3.000000e+00	-5.324042e-04	
430	2.000000e-01	3.000000e+00	-6.965987e-04	
431	2.500000e-01	3.000000e+00	-8.543967e-04	
432	3.000000e-01	3.000000e+00	-1.005936e-03	
433	3.500000e-01	3.000000e+00	-1.151352e-03	
434	4.000000e-01	3.000000e+00	-1.290773e-03	
435	4.500000e-01	3.000000e+00	-1.424328e-03	
436	5.000000e-01	3.000000e+00	-1.552139e-03	
437	5.500000e-01	3.000000e+00	-1.674325e-03	
438	6.000000e-01	3.000000e+00	-1.791005e-03	
439	6.500000e-01	3.000000e+00	-1.902291e-03	
440	7.000000e-01	3.000000e+00	-2.008294e-03	
441	7.500000e-01	3.000000e+00	-2.109122e-03	
442	8.000000e-01	3.000000e+00	-2.204880e-03	
443	8.500000e-01	3.000000e+00	-2.295671e-03	
444	9.000000e-01	3.000000e+00	-2.381595e-03	
445	9.500000e-01	3.000000e+00	-2.462752e-03	
446	1.000000e+00	3.000000e+00	-2.539238e-03	
447	1.050000e+00	3.000000e+00	-2.611151e-03	
448	1.100000e+00	3.000000e+00	-2.678586e-03	
449	1.150000e+00	3.000000e+00	-2.741644e-03	
450	1.200000e+00	3.000000e+00	-2.800433e-03	
451	1.250000e+00	3.000000e+00	-2.855083e-03	
452	1.300000e+00	3.000000e+00	-2.905766e-03	
453	1.350000e+00	3.000000e+00	-2.952733e-03	
454	1.400000e+00	3.000000e+00	-2.996335e-03	
455	1.450000e+00	3.000000e+00	-3.036994e-03	
456	1.500000e+00	3.000000e+00	-3.075125e-03	
457	1.550000e+00	3.000000e+00	-3.111071e-03	
458	1.600000e+00	3.000000e+00	-3.145081e-03	
459	1.650000e+00	3.000000e+00	-3.177348e-03	
460	1.700000e+00	3.000000e+00	-3.208026e-03	

Index   sweep           v(1)            vds#branch      
--------------------------------------------------------------------------------
461	1.750000e+00	3.000000e+00	-3.237253e-03	
462	1.800000e+00	3.000000e+00	-3.265153e-03	
463	1.850000e+00	3.000000e+00	-3.291841e-03	
464	1.900000e+00	3.000000e+00	-3.317423e-03	
465	1.950000e+00	3.000000e+00	-3.341995e-03	
466	2.000000e+00	3.000000e+00	-3.365643e-03	
467	2.050000e+00	3.000000e+00	-3.388447e-03	
468	2.100000e+00	3.000000e+00	-3.410478e-03	
469	2.150000e+00	3.000000e+00	-3.431800e-03	
470	2.200000e+00	3.000000e+00	-3.452470e-03	
471	2.250000e+00	3.000000e+00	-3.472541e-03	
472	2.300000e+00	3.000000e+00	-3.492061e-03	
473	2.350000e+00	3.000000e+00	-3.511070e-03	
474	2.400000e+00	3.000000e+00	-3.529609e-03	
475	2.450000e+00	3.000000e+00	-3.547711e-03	
476	2.500000e+00	3.000000e+00	-3.565409e-03	
477	2.550000e+00	3.000000e+00	-3.582731e-03	
478	2.600000e+00	3.000000e+00	-3.599703e-03	
479	2.650000e+00	3.000000e+00	-3.616351e-03	
480	2.700000e+00	3.000000e+00	-3.632694e-03	
481	2.750000e+00	3.000000e+00	-3.648754e-03	
482	2.800000e+00	3.000000e+00	-3.664549e-03	
483	2.850000e+00	3.000000e+00	-3.680096e-03	
484	2.900000e+00	3.000000e+00	-3.695410e-03	
485	2.950000e+00	3.000000e+00	-3.710506e-03	
486	3.000000e+00	3.000000e+00	-3.725398e-03	
487	3.050000e+00	3.000000e+00	-3.740096e-03	
488	3.100000e+00	3.000000e+00	-3.754613e-03	
489	3.150000e+00	3.000000e+00	-3.768959e-03	
490	3.200000e+00	3.000000e+00	-3.783143e-03	
491	3.250000e+00	3.000000e+00	-3.797176e-03	
492	3.300000e+00	3.000000e+00	-3.811065e-03	
493	3.350000e+00	3.000000e+00	-3.824818e-03	
494	3.400000e+00	3.000000e+00	-3.838443e-03	
495	3.450000e+00	3.000000e+00	-3.851947e-03	
496	3.500000e+00	3.000000e+00	-3.865335e-03	
497	0.000000e+00	3.500000e+00	0.000000e+00	
498	5.000000e-02	3.500000e+00	-1.893786e-04	
499	1.000000e-01	3.500000e+00	-3.727450e-04	
500	1.500000e-01	3.500000e+00	-5.502140e-04	
501	2.000000e-01	3.500000e+00	-7.218978e-04	
502	2.500000e-01	3.500000e+00	-8.879055e-04	
503	3.000000e-01	3.500000e+00	-1.048344e-03	
504	3.500000e-01	3.500000e+00	-1.203316e-03	
505	4.000000e-01	3.500000e+00	-1.352925e-03	
506	4.500000e-01	3.500000e+00	-1.497267e-03	
507	5.000000e-01	3.500000e+00	-1.636441e-03	
508	5.500000e-01	3.500000e+00	-1.770540e-03	
509	6.000000e-01	3.500000e+00	-1.899657e-03	
510	6.500000e-01	3.500000e+00	-2.023880e-03	
511	7.000000e-01	3.500000e+00	-2.143297e-03	
512	7.500000e-01	3.500000e+00	-2.257994e-03	
513	8.000000e-01	3.500000e+00	-2.368056e-03	
514	8.500000e-01	3.500000e+00	-2.473563e-03	
515	9.000000e-01	3.500000e+00	-2.574595e-03	
516	9.500000e-01	3.500000e+00	-2.671231e-03	
517	1.000000e+00	3.500000e+00	-2.763548e-03	
518	1.050000e+00	3.500000e+00	-2.851621e-03	

Index   sweep           v(1)            vds#branch      
--------------------------------------------------------------------------------
519	1.100000e+00	3.500000e+00	-2.935523e-03	
520	1.150000e+00	3.500000e+00	-3.015328e-03	
521	1.200000e+00	3.500000e+00	-3.091107e-03	
522	1.250000e+00	3.500000e+00	-3.162931e-03	
523	1.300000e+00	3.500000e+00	-3.230873e-03	
524	1.350000e+00	3.500000e+00	-3.295006e-03	
525	1.400000e+00	3.500000e+00	-3.355410e-03	
526	1.450000e+00	3.500000e+00	-3.412177e-03	
527	1.500000e+00	3.500000e+00	-3.465431e-03	
528	1.550000e+00	3.500000e+00	-3.515343e-03	
529	1.600000e+00	3.500000e+00	-3.562160e-03	
530	1.650000e+00	3.500000e+00	-3.606211e-03	
531	1.700000e+00	3.500000e+00	-3.647861e-03	
532	1.750000e+00	3.500000e+00	-3.687446e-03	
533	1.800000e+00	3.500000e+00	-3.725225e-03	
534	1.850000e+00	3.500000e+00	-3.761377e-03	
535	1.900000e+00	3.500000e+00	-3.796028e-03	
536	1.950000e+00	3.500000e+00	-3.829280e-03	
537	2.000000e+00	3.500000e+00	-3.861225e-03	
538	2.050000e+00	3.500000e+00	-3.891950e-03	
539	2.100000e+00	3.500000e+00	-3.921539e-03	
540	2.150000e+00	3.500000e+00	-3.950074e-03	
541	2.200000e+00	3.500000e+00	-3.977630e-03	
542	2.250000e+00	3.500000e+00	-4.004280e-03	
543	2.300000e+00	3.500000e+00	-4.030090e-03	
544	2.350000e+00	3.500000e+00	-4.055123e-03	
545	2.400000e+00	3.500000e+00	-4.079435e-03	
546	2.450000e+00	3.500000e+00	-4.103079e-03	
547	2.500000e+00	3.500000e+00	-4.126102e-03	
548	2.550000e+00	3.500000e+00	-4.148549e-03	
549	2.600000e+00	3.500000e+00	-4.170459e-03	
550	2.650000e+00	3.500000e+00	-4.191869e-03	
551	2.700000e+00	3.500000e+00	-4.212813e-03	
552	2.750000e+00	3.500000e+00	-4.233322e-03	
553	2.800000e+00	3.500000e+00	-4.253425e-03	
554	2.850000e+00	3.500000e+00	-4.273147e-03	
555	2.900000e+00	3.500000e+00	-4.292513e-03	
556	2.950000e+00	3.500000e+00	-4.311544e-03	
557	3.000000e+00	3.500000e+00	-4.330262e-03	
558	3.050000e+00	3.500000e+00	-4.348684e-03	
559	3.100000e+00	3.500000e+00	-4.366830e-03	
560	3.150000e+00	3.500000e+00	-4.384714e-03	
561	3.200000e+00	3.500000e+00	-4.402351e-03	
562	3.250000e+00	3.500000e+00	-4.419757e-03	
563	3.300000e+00	3.500000e+00	-4.436943e-03	
564	3.350000e+00	3.500000e+00	-4.453921e-03	
565	3.400000e+00	3.500000e+00	-4.470704e-03	
566	3.450000e+00	3.500000e+00	-4.487301e-03	
567	3.500000e+00	3.500000e+00	-4.503722e-03	



Total run time: 1.120 seconds.

Current data size = 249856,
Data limits: hard = 2147483647, soft = 2147483647.

