
Circuit: * 'xpressn-3' check nint/floor/ceil

Doing analysis at TEMP = 27.000000 and TNOM = 27.000000



No. of Data Rows : 1
INFO: 0 of 29 tests failed
