
Circuit: ***  For BSIM3V3  general purpose check (Id-Vg) for Nmosfet***

Warning: Pd = 0 is less than W.
Warning: Ps = 0 is less than W.
Circuit: ***  For BSIM3V3  general purpose check (Id-Vg) for Nmosfet***
Date: Tue Apr 20 23:13:10  1999


         ***  For BSIM3V3  general purpose check (Id-Vg) for Nmosfet***
         DCtransferCurve  Tue Apr 20 23:13:09  1999
--------------------------------------------------------------------------------
Index   sweep           v(2)            vds#branch      
--------------------------------------------------------------------------------
0	0.000000e+00	1.000000e-01	-3.550196e-09	
1	5.000000e-02	1.000000e-01	-1.263130e-08	
2	1.000000e-01	1.000000e-01	-4.417840e-08	
3	1.500000e-01	1.000000e-01	-1.503345e-07	
4	2.000000e-01	1.000000e-01	-4.923569e-07	
5	2.500000e-01	1.000000e-01	-1.540933e-06	
6	3.000000e-01	1.000000e-01	-4.549861e-06	
7	3.500000e-01	1.000000e-01	-1.207511e-05	
8	4.000000e-01	1.000000e-01	-2.680420e-05	
9	4.500000e-01	1.000000e-01	-4.824537e-05	
10	5.000000e-01	1.000000e-01	-7.274901e-05	
11	5.500000e-01	1.000000e-01	-9.720074e-05	
12	6.000000e-01	1.000000e-01	-1.202466e-04	
13	6.500000e-01	1.000000e-01	-1.415746e-04	
14	7.000000e-01	1.000000e-01	-1.612671e-04	
15	7.500000e-01	1.000000e-01	-1.795051e-04	
16	8.000000e-01	1.000000e-01	-1.964658e-04	
17	8.500000e-01	1.000000e-01	-2.122974e-04	
18	9.000000e-01	1.000000e-01	-2.271202e-04	
19	9.500000e-01	1.000000e-01	-2.410318e-04	
20	1.000000e+00	1.000000e-01	-2.541136e-04	
21	1.050000e+00	1.000000e-01	-2.664351e-04	
22	1.100000e+00	1.000000e-01	-2.780567e-04	
23	1.150000e+00	1.000000e-01	-2.890317e-04	
24	1.200000e+00	1.000000e-01	-2.994079e-04	
25	1.250000e+00	1.000000e-01	-3.092283e-04	
26	1.300000e+00	1.000000e-01	-3.185318e-04	
27	1.350000e+00	1.000000e-01	-3.273539e-04	
28	1.400000e+00	1.000000e-01	-3.357269e-04	
29	1.450000e+00	1.000000e-01	-3.436802e-04	
30	1.500000e+00	1.000000e-01	-3.512411e-04	
31	1.550000e+00	1.000000e-01	-3.584342e-04	
32	1.600000e+00	1.000000e-01	-3.652823e-04	
33	1.650000e+00	1.000000e-01	-3.718067e-04	
34	1.700000e+00	1.000000e-01	-3.780265e-04	
35	1.750000e+00	1.000000e-01	-3.839596e-04	
36	1.800000e+00	1.000000e-01	-3.896227e-04	
37	1.850000e+00	1.000000e-01	-3.950311e-04	
38	1.900000e+00	1.000000e-01	-4.001989e-04	
39	1.950000e+00	1.000000e-01	-4.051394e-04	
40	2.000000e+00	1.000000e-01	-4.098647e-04	
41	2.050000e+00	1.000000e-01	-4.143864e-04	
42	2.100000e+00	1.000000e-01	-4.187151e-04	
43	2.150000e+00	1.000000e-01	-4.228606e-04	
44	2.200000e+00	1.000000e-01	-4.268323e-04	
45	2.250000e+00	1.000000e-01	-4.306388e-04	
46	2.300000e+00	1.000000e-01	-4.342882e-04	
47	2.350000e+00	1.000000e-01	-4.377881e-04	
48	2.400000e+00	1.000000e-01	-4.411458e-04	
49	2.450000e+00	1.000000e-01	-4.443677e-04	
50	2.500000e+00	1.000000e-01	-4.474604e-04	
51	2.550000e+00	1.000000e-01	-4.504296e-04	
52	2.600000e+00	1.000000e-01	-4.532809e-04	
53	2.650000e+00	1.000000e-01	-4.560196e-04	
54	2.700000e+00	1.000000e-01	-4.586507e-04	

Index   sweep           v(2)            vds#branch      
--------------------------------------------------------------------------------
55	2.750000e+00	1.000000e-01	-4.611788e-04	
56	2.800000e+00	1.000000e-01	-4.636083e-04	
57	2.850000e+00	1.000000e-01	-4.659434e-04	
58	2.900000e+00	1.000000e-01	-4.681881e-04	
59	2.950000e+00	1.000000e-01	-4.703461e-04	
60	3.000000e+00	1.000000e-01	-4.724209e-04	
61	3.050000e+00	1.000000e-01	-4.744158e-04	
62	3.100000e+00	1.000000e-01	-4.763342e-04	
63	3.150000e+00	1.000000e-01	-4.781789e-04	
64	3.200000e+00	1.000000e-01	-4.799530e-04	
65	3.250000e+00	1.000000e-01	-4.816590e-04	
66	3.300000e+00	1.000000e-01	-4.832996e-04	
67	3.350000e+00	1.000000e-01	-4.848773e-04	
68	3.400000e+00	1.000000e-01	-4.863944e-04	
69	3.450000e+00	1.000000e-01	-4.878531e-04	
70	3.500000e+00	1.000000e-01	-4.892557e-04	
71	0.000000e+00	1.100000e+00	-7.720754e-09	
72	5.000000e-02	1.100000e+00	-2.735833e-08	
73	1.000000e-01	1.100000e+00	-9.502762e-08	
74	1.500000e-01	1.100000e+00	-3.198110e-07	
75	2.000000e-01	1.100000e+00	-1.030652e-06	
76	2.500000e-01	1.100000e+00	-3.154123e-06	
77	3.000000e-01	1.100000e+00	-9.015106e-06	
78	3.500000e-01	1.100000e+00	-2.297530e-05	
79	4.000000e-01	1.100000e+00	-4.962536e-05	
80	4.500000e-01	1.100000e+00	-9.006971e-05	
81	5.000000e-01	1.100000e+00	-1.415197e-04	
82	5.500000e-01	1.100000e+00	-2.001702e-04	
83	6.000000e-01	1.100000e+00	-2.631972e-04	
84	6.500000e-01	1.100000e+00	-3.289814e-04	
85	7.000000e-01	1.100000e+00	-3.966800e-04	
86	7.500000e-01	1.100000e+00	-4.658382e-04	
87	8.000000e-01	1.100000e+00	-5.361707e-04	
88	8.500000e-01	1.100000e+00	-6.074626e-04	
89	9.000000e-01	1.100000e+00	-6.795300e-04	
90	9.500000e-01	1.100000e+00	-7.522076e-04	
91	1.000000e+00	1.100000e+00	-8.253447e-04	
92	1.050000e+00	1.100000e+00	-8.988048e-04	
93	1.100000e+00	1.100000e+00	-9.724646e-04	
94	1.150000e+00	1.100000e+00	-1.046214e-03	
95	1.200000e+00	1.100000e+00	-1.119953e-03	
96	1.250000e+00	1.100000e+00	-1.193593e-03	
97	1.300000e+00	1.100000e+00	-1.267054e-03	
98	1.350000e+00	1.100000e+00	-1.340262e-03	
99	1.400000e+00	1.100000e+00	-1.413151e-03	
100	1.450000e+00	1.100000e+00	-1.485659e-03	
101	1.500000e+00	1.100000e+00	-1.557728e-03	
102	1.550000e+00	1.100000e+00	-1.629305e-03	
103	1.600000e+00	1.100000e+00	-1.700337e-03	
104	1.650000e+00	1.100000e+00	-1.770777e-03	
105	1.700000e+00	1.100000e+00	-1.840576e-03	
106	1.750000e+00	1.100000e+00	-1.909691e-03	
107	1.800000e+00	1.100000e+00	-1.978075e-03	
108	1.850000e+00	1.100000e+00	-2.045687e-03	
109	1.900000e+00	1.100000e+00	-2.112483e-03	
110	1.950000e+00	1.100000e+00	-2.178423e-03	
111	2.000000e+00	1.100000e+00	-2.243466e-03	
112	2.050000e+00	1.100000e+00	-2.307572e-03	

Index   sweep           v(2)            vds#branch      
--------------------------------------------------------------------------------
113	2.100000e+00	1.100000e+00	-2.370703e-03	
114	2.150000e+00	1.100000e+00	-2.432822e-03	
115	2.200000e+00	1.100000e+00	-2.493893e-03	
116	2.250000e+00	1.100000e+00	-2.553883e-03	
117	2.300000e+00	1.100000e+00	-2.612761e-03	
118	2.350000e+00	1.100000e+00	-2.670497e-03	
119	2.400000e+00	1.100000e+00	-2.727066e-03	
120	2.450000e+00	1.100000e+00	-2.782445e-03	
121	2.500000e+00	1.100000e+00	-2.836615e-03	
122	2.550000e+00	1.100000e+00	-2.889562e-03	
123	2.600000e+00	1.100000e+00	-2.941273e-03	
124	2.650000e+00	1.100000e+00	-2.991742e-03	
125	2.700000e+00	1.100000e+00	-3.040969e-03	
126	2.750000e+00	1.100000e+00	-3.088958e-03	
127	2.800000e+00	1.100000e+00	-3.135721e-03	
128	2.850000e+00	1.100000e+00	-3.181275e-03	
129	2.900000e+00	1.100000e+00	-3.225642e-03	
130	2.950000e+00	1.100000e+00	-3.268847e-03	
131	3.000000e+00	1.100000e+00	-3.310919e-03	
132	3.050000e+00	1.100000e+00	-3.351887e-03	
133	3.100000e+00	1.100000e+00	-3.391783e-03	
134	3.150000e+00	1.100000e+00	-3.430636e-03	
135	3.200000e+00	1.100000e+00	-3.468477e-03	
136	3.250000e+00	1.100000e+00	-3.505336e-03	
137	3.300000e+00	1.100000e+00	-3.541241e-03	
138	3.350000e+00	1.100000e+00	-3.576221e-03	
139	3.400000e+00	1.100000e+00	-3.610303e-03	
140	3.450000e+00	1.100000e+00	-3.643513e-03	
141	3.500000e+00	1.100000e+00	-3.675876e-03	
142	0.000000e+00	2.100000e+00	-1.388902e-08	
143	5.000000e-02	2.100000e+00	-4.898130e-08	
144	1.000000e-01	2.100000e+00	-1.687329e-07	
145	1.500000e-01	2.100000e+00	-5.602647e-07	
146	2.000000e-01	2.100000e+00	-1.768744e-06	
147	2.500000e-01	2.100000e+00	-5.244834e-06	
148	3.000000e-01	2.100000e+00	-1.426675e-05	
149	3.500000e-01	2.100000e+00	-3.400096e-05	
150	4.000000e-01	2.100000e+00	-6.850674e-05	
151	4.500000e-01	2.100000e+00	-1.173707e-04	
152	5.000000e-01	2.100000e+00	-1.768156e-04	
153	5.500000e-01	2.100000e+00	-2.429024e-04	
154	6.000000e-01	2.100000e+00	-3.130147e-04	
155	6.500000e-01	2.100000e+00	-3.857415e-04	
156	7.000000e-01	2.100000e+00	-4.603714e-04	
157	7.500000e-01	2.100000e+00	-5.365224e-04	
158	8.000000e-01	2.100000e+00	-6.139504e-04	
159	8.500000e-01	2.100000e+00	-6.924662e-04	
160	9.000000e-01	2.100000e+00	-7.719057e-04	
161	9.500000e-01	2.100000e+00	-8.521204e-04	
162	1.000000e+00	2.100000e+00	-9.329760e-04	
163	1.050000e+00	2.100000e+00	-1.014352e-03	
164	1.100000e+00	2.100000e+00	-1.096140e-03	
165	1.150000e+00	2.100000e+00	-1.178248e-03	
166	1.200000e+00	2.100000e+00	-1.260591e-03	
167	1.250000e+00	2.100000e+00	-1.343097e-03	
168	1.300000e+00	2.100000e+00	-1.425703e-03	
169	1.350000e+00	2.100000e+00	-1.508353e-03	
170	1.400000e+00	2.100000e+00	-1.590997e-03	

Index   sweep           v(2)            vds#branch      
--------------------------------------------------------------------------------
171	1.450000e+00	2.100000e+00	-1.673593e-03	
172	1.500000e+00	2.100000e+00	-1.756101e-03	
173	1.550000e+00	2.100000e+00	-1.838486e-03	
174	1.600000e+00	2.100000e+00	-1.920717e-03	
175	1.650000e+00	2.100000e+00	-2.002765e-03	
176	1.700000e+00	2.100000e+00	-2.084605e-03	
177	1.750000e+00	2.100000e+00	-2.166213e-03	
178	1.800000e+00	2.100000e+00	-2.247566e-03	
179	1.850000e+00	2.100000e+00	-2.328644e-03	
180	1.900000e+00	2.100000e+00	-2.409428e-03	
181	1.950000e+00	2.100000e+00	-2.489899e-03	
182	2.000000e+00	2.100000e+00	-2.570041e-03	
183	2.050000e+00	2.100000e+00	-2.649837e-03	
184	2.100000e+00	2.100000e+00	-2.729272e-03	
185	2.150000e+00	2.100000e+00	-2.808330e-03	
186	2.200000e+00	2.100000e+00	-2.886998e-03	
187	2.250000e+00	2.100000e+00	-2.965261e-03	
188	2.300000e+00	2.100000e+00	-3.043105e-03	
189	2.350000e+00	2.100000e+00	-3.120518e-03	
190	2.400000e+00	2.100000e+00	-3.197486e-03	
191	2.450000e+00	2.100000e+00	-3.273997e-03	
192	2.500000e+00	2.100000e+00	-3.350038e-03	
193	2.550000e+00	2.100000e+00	-3.425596e-03	
194	2.600000e+00	2.100000e+00	-3.500660e-03	
195	2.650000e+00	2.100000e+00	-3.575218e-03	
196	2.700000e+00	2.100000e+00	-3.649256e-03	
197	2.750000e+00	2.100000e+00	-3.722764e-03	
198	2.800000e+00	2.100000e+00	-3.795729e-03	
199	2.850000e+00	2.100000e+00	-3.868140e-03	
200	2.900000e+00	2.100000e+00	-3.939984e-03	
201	2.950000e+00	2.100000e+00	-4.011250e-03	
202	3.000000e+00	2.100000e+00	-4.081927e-03	
203	3.050000e+00	2.100000e+00	-4.152002e-03	
204	3.100000e+00	2.100000e+00	-4.221464e-03	
205	3.150000e+00	2.100000e+00	-4.290300e-03	
206	3.200000e+00	2.100000e+00	-4.358500e-03	
207	3.250000e+00	2.100000e+00	-4.426052e-03	
208	3.300000e+00	2.100000e+00	-4.492945e-03	
209	3.350000e+00	2.100000e+00	-4.559166e-03	
210	3.400000e+00	2.100000e+00	-4.624705e-03	
211	3.450000e+00	2.100000e+00	-4.689550e-03	
212	3.500000e+00	2.100000e+00	-4.753690e-03	
213	0.000000e+00	3.100000e+00	-2.406998e-08	
214	5.000000e-02	3.100000e+00	-8.441403e-08	
215	1.000000e-01	3.100000e+00	-2.880253e-07	
216	1.500000e-01	3.100000e+00	-9.418503e-07	
217	2.000000e-01	3.100000e+00	-2.905829e-06	
218	2.500000e-01	3.100000e+00	-8.322428e-06	
219	3.000000e-01	3.100000e+00	-2.148728e-05	
220	3.500000e-01	3.100000e+00	-4.795305e-05	
221	4.000000e-01	3.100000e+00	-9.061314e-05	
222	4.500000e-01	3.100000e+00	-1.474365e-04	
223	5.000000e-01	3.100000e+00	-2.139519e-04	
224	5.500000e-01	3.100000e+00	-2.863160e-04	
225	6.000000e-01	3.100000e+00	-3.622053e-04	
226	6.500000e-01	3.100000e+00	-4.404320e-04	
227	7.000000e-01	3.100000e+00	-5.204118e-04	
228	7.500000e-01	3.100000e+00	-6.018280e-04	

Index   sweep           v(2)            vds#branch      
--------------------------------------------------------------------------------
229	8.000000e-01	3.100000e+00	-6.844701e-04	
230	8.500000e-01	3.100000e+00	-7.681684e-04	
231	9.000000e-01	3.100000e+00	-8.527717e-04	
232	9.500000e-01	3.100000e+00	-9.381420e-04	
233	1.000000e+00	3.100000e+00	-1.024154e-03	
234	1.050000e+00	3.100000e+00	-1.110695e-03	
235	1.100000e+00	3.100000e+00	-1.197665e-03	
236	1.150000e+00	3.100000e+00	-1.284978e-03	
237	1.200000e+00	3.100000e+00	-1.372557e-03	
238	1.250000e+00	3.100000e+00	-1.460334e-03	
239	1.300000e+00	3.100000e+00	-1.548253e-03	
240	1.350000e+00	3.100000e+00	-1.636263e-03	
241	1.400000e+00	3.100000e+00	-1.724320e-03	
242	1.450000e+00	3.100000e+00	-1.812384e-03	
243	1.500000e+00	3.100000e+00	-1.900421e-03	
244	1.550000e+00	3.100000e+00	-1.988402e-03	
245	1.600000e+00	3.100000e+00	-2.076298e-03	
246	1.650000e+00	3.100000e+00	-2.164086e-03	
247	1.700000e+00	3.100000e+00	-2.251743e-03	
248	1.750000e+00	3.100000e+00	-2.339249e-03	
249	1.800000e+00	3.100000e+00	-2.426588e-03	
250	1.850000e+00	3.100000e+00	-2.513741e-03	
251	1.900000e+00	3.100000e+00	-2.600693e-03	
252	1.950000e+00	3.100000e+00	-2.687431e-03	
253	2.000000e+00	3.100000e+00	-2.773942e-03	
254	2.050000e+00	3.100000e+00	-2.860213e-03	
255	2.100000e+00	3.100000e+00	-2.946232e-03	
256	2.150000e+00	3.100000e+00	-3.031989e-03	
257	2.200000e+00	3.100000e+00	-3.117473e-03	
258	2.250000e+00	3.100000e+00	-3.202676e-03	
259	2.300000e+00	3.100000e+00	-3.287586e-03	
260	2.350000e+00	3.100000e+00	-3.372196e-03	
261	2.400000e+00	3.100000e+00	-3.456497e-03	
262	2.450000e+00	3.100000e+00	-3.540480e-03	
263	2.500000e+00	3.100000e+00	-3.624138e-03	
264	2.550000e+00	3.100000e+00	-3.707463e-03	
265	2.600000e+00	3.100000e+00	-3.790447e-03	
266	2.650000e+00	3.100000e+00	-3.873083e-03	
267	2.700000e+00	3.100000e+00	-3.955363e-03	
268	2.750000e+00	3.100000e+00	-4.037281e-03	
269	2.800000e+00	3.100000e+00	-4.118830e-03	
270	2.850000e+00	3.100000e+00	-4.200002e-03	
271	2.900000e+00	3.100000e+00	-4.280792e-03	
272	2.950000e+00	3.100000e+00	-4.361192e-03	
273	3.000000e+00	3.100000e+00	-4.441195e-03	
274	3.050000e+00	3.100000e+00	-4.520796e-03	
275	3.100000e+00	3.100000e+00	-4.599987e-03	
276	3.150000e+00	3.100000e+00	-4.678762e-03	
277	3.200000e+00	3.100000e+00	-4.757115e-03	
278	3.250000e+00	3.100000e+00	-4.835039e-03	
279	3.300000e+00	3.100000e+00	-4.912527e-03	
280	3.350000e+00	3.100000e+00	-4.989573e-03	
281	3.400000e+00	3.100000e+00	-5.066169e-03	
282	3.450000e+00	3.100000e+00	-5.142310e-03	
283	3.500000e+00	3.100000e+00	-5.217986e-03	



Total run time: 0.750 seconds.

Current data size = 233472,
Data limits: hard = 2147483647, soft = 2147483647.

