Circuit: 6.3inch 4 lossy lines cpl model -- r load 

Doing analysis at TEMP = 27.000000 and TNOM = 27.000000

Warning: vs1: no DC value, transient time 0 value used


No. of Data Rows : 1018
                   6.3inch 4 lossy lines cpl model -- r load 
                   Transient Analysis  Sun Feb 07 19:00:53  2010
--------------------------------------------------------------------------------
Index   time            v(2)            v(7)            v(9)            
--------------------------------------------------------------------------------
0	0.000000e+00	0.000000e+00	0.000000e+00	0.000000e+00	
1	2.000000e-12	0.000000e+00	0.000000e+00	0.000000e+00	
2	4.000000e-12	0.000000e+00	0.000000e+00	0.000000e+00	
3	8.000000e-12	0.000000e+00	0.000000e+00	0.000000e+00	
4	1.600000e-11	0.000000e+00	0.000000e+00	0.000000e+00	
5	3.200000e-11	0.000000e+00	0.000000e+00	0.000000e+00	
6	6.400000e-11	0.000000e+00	0.000000e+00	0.000000e+00	
7	1.140000e-10	0.000000e+00	0.000000e+00	0.000000e+00	
8	1.640000e-10	0.000000e+00	0.000000e+00	0.000000e+00	
9	2.140000e-10	0.000000e+00	0.000000e+00	0.000000e+00	
10	2.640000e-10	0.000000e+00	0.000000e+00	0.000000e+00	
11	3.140000e-10	0.000000e+00	0.000000e+00	0.000000e+00	
12	3.640000e-10	0.000000e+00	0.000000e+00	0.000000e+00	
13	4.140000e-10	0.000000e+00	0.000000e+00	0.000000e+00	
14	4.640000e-10	0.000000e+00	0.000000e+00	0.000000e+00	
15	5.140000e-10	0.000000e+00	0.000000e+00	0.000000e+00	
16	5.640000e-10	0.000000e+00	0.000000e+00	0.000000e+00	
17	6.140000e-10	0.000000e+00	0.000000e+00	0.000000e+00	
18	6.640000e-10	0.000000e+00	0.000000e+00	0.000000e+00	
19	7.140000e-10	0.000000e+00	0.000000e+00	0.000000e+00	
20	7.640000e-10	0.000000e+00	0.000000e+00	0.000000e+00	
21	8.140000e-10	0.000000e+00	0.000000e+00	0.000000e+00	
22	8.640000e-10	0.000000e+00	0.000000e+00	0.000000e+00	
23	9.140000e-10	0.000000e+00	0.000000e+00	0.000000e+00	
24	9.640000e-10	0.000000e+00	0.000000e+00	0.000000e+00	
25	1.014000e-09	0.000000e+00	0.000000e+00	0.000000e+00	
26	1.064000e-09	0.000000e+00	0.000000e+00	0.000000e+00	
27	1.114000e-09	0.000000e+00	0.000000e+00	0.000000e+00	
28	1.164000e-09	0.000000e+00	0.000000e+00	0.000000e+00	
29	1.214000e-09	0.000000e+00	0.000000e+00	0.000000e+00	
30	1.264000e-09	0.000000e+00	0.000000e+00	0.000000e+00	
31	1.314000e-09	0.000000e+00	0.000000e+00	0.000000e+00	
32	1.364000e-09	0.000000e+00	0.000000e+00	0.000000e+00	
33	1.414000e-09	0.000000e+00	0.000000e+00	0.000000e+00	
34	1.464000e-09	0.000000e+00	0.000000e+00	0.000000e+00	
35	1.514000e-09	0.000000e+00	0.000000e+00	0.000000e+00	
36	1.564000e-09	0.000000e+00	0.000000e+00	0.000000e+00	
37	1.614000e-09	0.000000e+00	0.000000e+00	0.000000e+00	
38	1.664000e-09	0.000000e+00	0.000000e+00	0.000000e+00	
39	1.714000e-09	0.000000e+00	0.000000e+00	0.000000e+00	
40	1.764000e-09	0.000000e+00	0.000000e+00	0.000000e+00	
41	1.814000e-09	0.000000e+00	0.000000e+00	0.000000e+00	
42	1.864000e-09	0.000000e+00	0.000000e+00	0.000000e+00	
43	1.914000e-09	0.000000e+00	0.000000e+00	0.000000e+00	
44	1.964000e-09	0.000000e+00	0.000000e+00	0.000000e+00	
45	2.014000e-09	0.000000e+00	0.000000e+00	0.000000e+00	
46	2.064000e-09	0.000000e+00	0.000000e+00	0.000000e+00	
47	2.114000e-09	0.000000e+00	0.000000e+00	0.000000e+00	
48	2.164000e-09	0.000000e+00	0.000000e+00	0.000000e+00	
49	2.214000e-09	0.000000e+00	0.000000e+00	0.000000e+00	
50	2.264000e-09	0.000000e+00	0.000000e+00	0.000000e+00	
51	2.314000e-09	0.000000e+00	0.000000e+00	0.000000e+00	
52	2.364000e-09	0.000000e+00	0.000000e+00	0.000000e+00	
53	2.414000e-09	0.000000e+00	0.000000e+00	0.000000e+00	
54	2.464000e-09	0.000000e+00	0.000000e+00	0.000000e+00	

Index   time            v(2)            v(7)            v(9)            
--------------------------------------------------------------------------------
55	2.514000e-09	0.000000e+00	0.000000e+00	0.000000e+00	
56	2.564000e-09	0.000000e+00	0.000000e+00	0.000000e+00	
57	2.614000e-09	0.000000e+00	0.000000e+00	0.000000e+00	
58	2.664000e-09	0.000000e+00	0.000000e+00	0.000000e+00	
59	2.714000e-09	0.000000e+00	0.000000e+00	0.000000e+00	
60	2.764000e-09	0.000000e+00	0.000000e+00	0.000000e+00	
61	2.814000e-09	0.000000e+00	0.000000e+00	0.000000e+00	
62	2.864000e-09	0.000000e+00	0.000000e+00	0.000000e+00	
63	2.914000e-09	0.000000e+00	0.000000e+00	0.000000e+00	
64	2.964000e-09	0.000000e+00	0.000000e+00	0.000000e+00	
65	3.014000e-09	0.000000e+00	0.000000e+00	0.000000e+00	
66	3.064000e-09	0.000000e+00	0.000000e+00	0.000000e+00	
67	3.114000e-09	0.000000e+00	0.000000e+00	0.000000e+00	
68	3.164000e-09	0.000000e+00	0.000000e+00	0.000000e+00	
69	3.214000e-09	0.000000e+00	0.000000e+00	0.000000e+00	
70	3.264000e-09	0.000000e+00	0.000000e+00	0.000000e+00	
71	3.314000e-09	0.000000e+00	0.000000e+00	0.000000e+00	
72	3.364000e-09	0.000000e+00	0.000000e+00	0.000000e+00	
73	3.414000e-09	0.000000e+00	0.000000e+00	0.000000e+00	
74	3.464000e-09	0.000000e+00	0.000000e+00	0.000000e+00	
75	3.514000e-09	0.000000e+00	0.000000e+00	0.000000e+00	
76	3.564000e-09	0.000000e+00	0.000000e+00	0.000000e+00	
77	3.614000e-09	0.000000e+00	0.000000e+00	0.000000e+00	
78	3.664000e-09	0.000000e+00	0.000000e+00	0.000000e+00	
79	3.714000e-09	0.000000e+00	0.000000e+00	0.000000e+00	
80	3.764000e-09	0.000000e+00	0.000000e+00	0.000000e+00	
81	3.814000e-09	0.000000e+00	0.000000e+00	0.000000e+00	
82	3.864000e-09	0.000000e+00	0.000000e+00	0.000000e+00	
83	3.914000e-09	0.000000e+00	0.000000e+00	0.000000e+00	
84	3.964000e-09	0.000000e+00	0.000000e+00	0.000000e+00	
85	4.014000e-09	0.000000e+00	0.000000e+00	0.000000e+00	
86	4.064000e-09	0.000000e+00	0.000000e+00	0.000000e+00	
87	4.114000e-09	0.000000e+00	0.000000e+00	0.000000e+00	
88	4.164000e-09	0.000000e+00	0.000000e+00	0.000000e+00	
89	4.214000e-09	0.000000e+00	0.000000e+00	0.000000e+00	
90	4.264000e-09	0.000000e+00	0.000000e+00	0.000000e+00	
91	4.314000e-09	0.000000e+00	0.000000e+00	0.000000e+00	
92	4.364000e-09	0.000000e+00	0.000000e+00	0.000000e+00	
93	4.414000e-09	0.000000e+00	0.000000e+00	0.000000e+00	
94	4.464000e-09	0.000000e+00	0.000000e+00	0.000000e+00	
95	4.514000e-09	0.000000e+00	0.000000e+00	0.000000e+00	
96	4.564000e-09	0.000000e+00	0.000000e+00	0.000000e+00	
97	4.614000e-09	0.000000e+00	0.000000e+00	0.000000e+00	
98	4.664000e-09	0.000000e+00	0.000000e+00	0.000000e+00	
99	4.714000e-09	0.000000e+00	0.000000e+00	0.000000e+00	
100	4.764000e-09	0.000000e+00	0.000000e+00	0.000000e+00	
101	4.814000e-09	0.000000e+00	0.000000e+00	0.000000e+00	
102	4.864000e-09	0.000000e+00	0.000000e+00	0.000000e+00	
103	4.914000e-09	0.000000e+00	0.000000e+00	0.000000e+00	
104	4.964000e-09	0.000000e+00	0.000000e+00	0.000000e+00	
105	5.014000e-09	0.000000e+00	0.000000e+00	0.000000e+00	
106	5.064000e-09	0.000000e+00	0.000000e+00	0.000000e+00	
107	5.114000e-09	0.000000e+00	0.000000e+00	0.000000e+00	
108	5.164000e-09	0.000000e+00	0.000000e+00	0.000000e+00	
109	5.214000e-09	0.000000e+00	0.000000e+00	0.000000e+00	
110	5.264000e-09	0.000000e+00	0.000000e+00	0.000000e+00	
111	5.314000e-09	0.000000e+00	0.000000e+00	0.000000e+00	
112	5.364000e-09	0.000000e+00	0.000000e+00	0.000000e+00	

Index   time            v(2)            v(7)            v(9)            
--------------------------------------------------------------------------------
113	5.414000e-09	0.000000e+00	0.000000e+00	0.000000e+00	
114	5.464000e-09	0.000000e+00	0.000000e+00	0.000000e+00	
115	5.514000e-09	0.000000e+00	0.000000e+00	0.000000e+00	
116	5.564000e-09	0.000000e+00	0.000000e+00	0.000000e+00	
117	5.614000e-09	0.000000e+00	0.000000e+00	0.000000e+00	
118	5.664000e-09	0.000000e+00	0.000000e+00	0.000000e+00	
119	5.714000e-09	0.000000e+00	0.000000e+00	0.000000e+00	
120	5.764000e-09	0.000000e+00	0.000000e+00	0.000000e+00	
121	5.814000e-09	0.000000e+00	0.000000e+00	0.000000e+00	
122	5.864000e-09	0.000000e+00	0.000000e+00	0.000000e+00	
123	5.914000e-09	0.000000e+00	0.000000e+00	0.000000e+00	
124	5.964000e-09	0.000000e+00	0.000000e+00	0.000000e+00	
125	6.014000e-09	0.000000e+00	0.000000e+00	0.000000e+00	
126	6.064000e-09	0.000000e+00	0.000000e+00	0.000000e+00	
127	6.114000e-09	0.000000e+00	0.000000e+00	0.000000e+00	
128	6.164000e-09	0.000000e+00	0.000000e+00	0.000000e+00	
129	6.214000e-09	0.000000e+00	0.000000e+00	0.000000e+00	
130	6.264000e-09	0.000000e+00	0.000000e+00	0.000000e+00	
131	6.314000e-09	0.000000e+00	0.000000e+00	0.000000e+00	
132	6.364000e-09	0.000000e+00	0.000000e+00	0.000000e+00	
133	6.414000e-09	0.000000e+00	0.000000e+00	0.000000e+00	
134	6.464000e-09	0.000000e+00	0.000000e+00	0.000000e+00	
135	6.514000e-09	0.000000e+00	0.000000e+00	0.000000e+00	
136	6.564000e-09	0.000000e+00	0.000000e+00	0.000000e+00	
137	6.614000e-09	0.000000e+00	0.000000e+00	0.000000e+00	
138	6.664000e-09	0.000000e+00	0.000000e+00	0.000000e+00	
139	6.714000e-09	0.000000e+00	0.000000e+00	0.000000e+00	
140	6.764000e-09	0.000000e+00	0.000000e+00	0.000000e+00	
141	6.814000e-09	0.000000e+00	0.000000e+00	0.000000e+00	
142	6.864000e-09	0.000000e+00	0.000000e+00	0.000000e+00	
143	6.914000e-09	0.000000e+00	0.000000e+00	0.000000e+00	
144	6.964000e-09	0.000000e+00	0.000000e+00	0.000000e+00	
145	7.014000e-09	0.000000e+00	0.000000e+00	0.000000e+00	
146	7.064000e-09	0.000000e+00	0.000000e+00	0.000000e+00	
147	7.114000e-09	0.000000e+00	0.000000e+00	0.000000e+00	
148	7.164000e-09	0.000000e+00	0.000000e+00	0.000000e+00	
149	7.214000e-09	0.000000e+00	0.000000e+00	0.000000e+00	
150	7.264000e-09	0.000000e+00	0.000000e+00	0.000000e+00	
151	7.314000e-09	0.000000e+00	0.000000e+00	0.000000e+00	
152	7.364000e-09	0.000000e+00	0.000000e+00	0.000000e+00	
153	7.414000e-09	0.000000e+00	0.000000e+00	0.000000e+00	
154	7.464000e-09	0.000000e+00	0.000000e+00	0.000000e+00	
155	7.514000e-09	0.000000e+00	0.000000e+00	0.000000e+00	
156	7.564000e-09	0.000000e+00	0.000000e+00	0.000000e+00	
157	7.614000e-09	0.000000e+00	0.000000e+00	0.000000e+00	
158	7.664000e-09	0.000000e+00	0.000000e+00	0.000000e+00	
159	7.714000e-09	0.000000e+00	0.000000e+00	0.000000e+00	
160	7.764000e-09	0.000000e+00	0.000000e+00	0.000000e+00	
161	7.814000e-09	0.000000e+00	0.000000e+00	0.000000e+00	
162	7.864000e-09	0.000000e+00	0.000000e+00	0.000000e+00	
163	7.914000e-09	0.000000e+00	0.000000e+00	0.000000e+00	
164	7.964000e-09	0.000000e+00	0.000000e+00	0.000000e+00	
165	8.014000e-09	0.000000e+00	0.000000e+00	0.000000e+00	
166	8.064000e-09	0.000000e+00	0.000000e+00	0.000000e+00	
167	8.114000e-09	0.000000e+00	0.000000e+00	0.000000e+00	
168	8.164000e-09	0.000000e+00	0.000000e+00	0.000000e+00	
169	8.214000e-09	0.000000e+00	0.000000e+00	0.000000e+00	
170	8.264000e-09	0.000000e+00	0.000000e+00	0.000000e+00	

Index   time            v(2)            v(7)            v(9)            
--------------------------------------------------------------------------------
171	8.314000e-09	0.000000e+00	0.000000e+00	0.000000e+00	
172	8.364000e-09	0.000000e+00	0.000000e+00	0.000000e+00	
173	8.414000e-09	0.000000e+00	0.000000e+00	0.000000e+00	
174	8.464000e-09	0.000000e+00	0.000000e+00	0.000000e+00	
175	8.514000e-09	0.000000e+00	0.000000e+00	0.000000e+00	
176	8.564000e-09	0.000000e+00	0.000000e+00	0.000000e+00	
177	8.614000e-09	0.000000e+00	0.000000e+00	0.000000e+00	
178	8.664000e-09	0.000000e+00	0.000000e+00	0.000000e+00	
179	8.714000e-09	0.000000e+00	0.000000e+00	0.000000e+00	
180	8.764000e-09	0.000000e+00	0.000000e+00	0.000000e+00	
181	8.814000e-09	0.000000e+00	0.000000e+00	0.000000e+00	
182	8.864000e-09	0.000000e+00	0.000000e+00	0.000000e+00	
183	8.914000e-09	0.000000e+00	0.000000e+00	0.000000e+00	
184	8.964000e-09	0.000000e+00	0.000000e+00	0.000000e+00	
185	9.014000e-09	0.000000e+00	0.000000e+00	0.000000e+00	
186	9.064000e-09	0.000000e+00	0.000000e+00	0.000000e+00	
187	9.114000e-09	0.000000e+00	0.000000e+00	0.000000e+00	
188	9.164000e-09	0.000000e+00	0.000000e+00	0.000000e+00	
189	9.214000e-09	0.000000e+00	0.000000e+00	0.000000e+00	
190	9.264000e-09	0.000000e+00	0.000000e+00	0.000000e+00	
191	9.314000e-09	0.000000e+00	0.000000e+00	0.000000e+00	
192	9.364000e-09	0.000000e+00	0.000000e+00	0.000000e+00	
193	9.414000e-09	0.000000e+00	0.000000e+00	0.000000e+00	
194	9.464000e-09	0.000000e+00	0.000000e+00	0.000000e+00	
195	9.514000e-09	0.000000e+00	0.000000e+00	0.000000e+00	
196	9.564000e-09	0.000000e+00	0.000000e+00	0.000000e+00	
197	9.614000e-09	0.000000e+00	0.000000e+00	0.000000e+00	
198	9.664000e-09	0.000000e+00	0.000000e+00	0.000000e+00	
199	9.714000e-09	0.000000e+00	0.000000e+00	0.000000e+00	
200	9.764000e-09	0.000000e+00	0.000000e+00	0.000000e+00	
201	9.814000e-09	0.000000e+00	0.000000e+00	0.000000e+00	
202	9.864000e-09	0.000000e+00	0.000000e+00	0.000000e+00	
203	9.914000e-09	0.000000e+00	0.000000e+00	0.000000e+00	
204	9.964000e-09	0.000000e+00	0.000000e+00	0.000000e+00	
205	1.001400e-08	0.000000e+00	0.000000e+00	0.000000e+00	
206	1.006400e-08	0.000000e+00	0.000000e+00	0.000000e+00	
207	1.011400e-08	0.000000e+00	0.000000e+00	0.000000e+00	
208	1.016400e-08	0.000000e+00	0.000000e+00	0.000000e+00	
209	1.021400e-08	0.000000e+00	0.000000e+00	0.000000e+00	
210	1.026400e-08	0.000000e+00	0.000000e+00	0.000000e+00	
211	1.031400e-08	0.000000e+00	0.000000e+00	0.000000e+00	
212	1.036400e-08	0.000000e+00	0.000000e+00	0.000000e+00	
213	1.041400e-08	0.000000e+00	0.000000e+00	0.000000e+00	
214	1.046400e-08	0.000000e+00	0.000000e+00	0.000000e+00	
215	1.051400e-08	0.000000e+00	0.000000e+00	0.000000e+00	
216	1.056400e-08	0.000000e+00	0.000000e+00	0.000000e+00	
217	1.061400e-08	0.000000e+00	0.000000e+00	0.000000e+00	
218	1.066400e-08	0.000000e+00	0.000000e+00	0.000000e+00	
219	1.071400e-08	0.000000e+00	0.000000e+00	0.000000e+00	
220	1.076400e-08	0.000000e+00	0.000000e+00	0.000000e+00	
221	1.081400e-08	0.000000e+00	0.000000e+00	0.000000e+00	
222	1.086400e-08	0.000000e+00	0.000000e+00	0.000000e+00	
223	1.091400e-08	0.000000e+00	0.000000e+00	0.000000e+00	
224	1.096400e-08	0.000000e+00	0.000000e+00	0.000000e+00	
225	1.101400e-08	0.000000e+00	0.000000e+00	0.000000e+00	
226	1.106400e-08	0.000000e+00	0.000000e+00	0.000000e+00	
227	1.111400e-08	0.000000e+00	0.000000e+00	0.000000e+00	
228	1.116400e-08	0.000000e+00	0.000000e+00	0.000000e+00	

Index   time            v(2)            v(7)            v(9)            
--------------------------------------------------------------------------------
229	1.121400e-08	0.000000e+00	0.000000e+00	0.000000e+00	
230	1.126400e-08	0.000000e+00	0.000000e+00	0.000000e+00	
231	1.131400e-08	0.000000e+00	0.000000e+00	0.000000e+00	
232	1.136400e-08	0.000000e+00	0.000000e+00	0.000000e+00	
233	1.141400e-08	0.000000e+00	0.000000e+00	0.000000e+00	
234	1.146400e-08	0.000000e+00	0.000000e+00	0.000000e+00	
235	1.151400e-08	0.000000e+00	0.000000e+00	0.000000e+00	
236	1.156400e-08	0.000000e+00	0.000000e+00	0.000000e+00	
237	1.161400e-08	0.000000e+00	0.000000e+00	0.000000e+00	
238	1.166400e-08	0.000000e+00	0.000000e+00	0.000000e+00	
239	1.171400e-08	0.000000e+00	0.000000e+00	0.000000e+00	
240	1.176400e-08	0.000000e+00	0.000000e+00	0.000000e+00	
241	1.181400e-08	0.000000e+00	0.000000e+00	0.000000e+00	
242	1.186400e-08	0.000000e+00	0.000000e+00	0.000000e+00	
243	1.191400e-08	0.000000e+00	0.000000e+00	0.000000e+00	
244	1.196400e-08	0.000000e+00	0.000000e+00	0.000000e+00	
245	1.201400e-08	0.000000e+00	0.000000e+00	0.000000e+00	
246	1.206400e-08	0.000000e+00	0.000000e+00	0.000000e+00	
247	1.211400e-08	0.000000e+00	0.000000e+00	0.000000e+00	
248	1.216400e-08	0.000000e+00	0.000000e+00	0.000000e+00	
249	1.221400e-08	0.000000e+00	0.000000e+00	0.000000e+00	
250	1.226400e-08	0.000000e+00	0.000000e+00	0.000000e+00	
251	1.231400e-08	0.000000e+00	0.000000e+00	0.000000e+00	
252	1.236400e-08	0.000000e+00	0.000000e+00	0.000000e+00	
253	1.241400e-08	0.000000e+00	0.000000e+00	0.000000e+00	
254	1.246400e-08	0.000000e+00	0.000000e+00	0.000000e+00	
255	1.251400e-08	0.000000e+00	0.000000e+00	0.000000e+00	
256	1.256400e-08	0.000000e+00	0.000000e+00	0.000000e+00	
257	1.261400e-08	0.000000e+00	0.000000e+00	0.000000e+00	
258	1.266400e-08	0.000000e+00	0.000000e+00	0.000000e+00	
259	1.271400e-08	0.000000e+00	0.000000e+00	0.000000e+00	
260	1.276400e-08	0.000000e+00	0.000000e+00	0.000000e+00	
261	1.281400e-08	0.000000e+00	0.000000e+00	0.000000e+00	
262	1.286400e-08	0.000000e+00	0.000000e+00	0.000000e+00	
263	1.291400e-08	0.000000e+00	0.000000e+00	0.000000e+00	
264	1.296400e-08	0.000000e+00	0.000000e+00	0.000000e+00	
265	1.301400e-08	0.000000e+00	0.000000e+00	0.000000e+00	
266	1.306400e-08	0.000000e+00	0.000000e+00	0.000000e+00	
267	1.311400e-08	0.000000e+00	0.000000e+00	0.000000e+00	
268	1.316400e-08	0.000000e+00	0.000000e+00	0.000000e+00	
269	1.321400e-08	0.000000e+00	0.000000e+00	0.000000e+00	
270	1.326400e-08	0.000000e+00	0.000000e+00	0.000000e+00	
271	1.331400e-08	0.000000e+00	0.000000e+00	0.000000e+00	
272	1.336400e-08	0.000000e+00	0.000000e+00	0.000000e+00	
273	1.341400e-08	0.000000e+00	0.000000e+00	0.000000e+00	
274	1.346400e-08	0.000000e+00	0.000000e+00	0.000000e+00	
275	1.351400e-08	0.000000e+00	0.000000e+00	0.000000e+00	
276	1.356400e-08	0.000000e+00	0.000000e+00	0.000000e+00	
277	1.361400e-08	0.000000e+00	0.000000e+00	0.000000e+00	
278	1.366400e-08	0.000000e+00	0.000000e+00	0.000000e+00	
279	1.371400e-08	0.000000e+00	0.000000e+00	0.000000e+00	
280	1.376400e-08	0.000000e+00	0.000000e+00	0.000000e+00	
281	1.381400e-08	0.000000e+00	0.000000e+00	0.000000e+00	
282	1.386400e-08	0.000000e+00	0.000000e+00	0.000000e+00	
283	1.391400e-08	0.000000e+00	0.000000e+00	0.000000e+00	
284	1.396400e-08	0.000000e+00	0.000000e+00	0.000000e+00	
285	1.401400e-08	0.000000e+00	0.000000e+00	0.000000e+00	
286	1.406400e-08	0.000000e+00	0.000000e+00	0.000000e+00	

Index   time            v(2)            v(7)            v(9)            
--------------------------------------------------------------------------------
287	1.411400e-08	0.000000e+00	0.000000e+00	0.000000e+00	
288	1.416400e-08	0.000000e+00	0.000000e+00	0.000000e+00	
289	1.421400e-08	0.000000e+00	0.000000e+00	0.000000e+00	
290	1.426400e-08	0.000000e+00	0.000000e+00	0.000000e+00	
291	1.431400e-08	0.000000e+00	0.000000e+00	0.000000e+00	
292	1.436400e-08	0.000000e+00	0.000000e+00	0.000000e+00	
293	1.441400e-08	0.000000e+00	0.000000e+00	0.000000e+00	
294	1.446400e-08	0.000000e+00	0.000000e+00	0.000000e+00	
295	1.451400e-08	0.000000e+00	0.000000e+00	0.000000e+00	
296	1.456400e-08	0.000000e+00	0.000000e+00	0.000000e+00	
297	1.461400e-08	0.000000e+00	0.000000e+00	0.000000e+00	
298	1.466400e-08	0.000000e+00	0.000000e+00	0.000000e+00	
299	1.471400e-08	0.000000e+00	0.000000e+00	0.000000e+00	
300	1.476400e-08	0.000000e+00	0.000000e+00	0.000000e+00	
301	1.481400e-08	0.000000e+00	0.000000e+00	0.000000e+00	
302	1.486400e-08	0.000000e+00	0.000000e+00	0.000000e+00	
303	1.491400e-08	0.000000e+00	0.000000e+00	0.000000e+00	
304	1.496400e-08	0.000000e+00	0.000000e+00	0.000000e+00	
305	1.501400e-08	0.000000e+00	0.000000e+00	0.000000e+00	
306	1.506400e-08	0.000000e+00	0.000000e+00	0.000000e+00	
307	1.511400e-08	0.000000e+00	0.000000e+00	0.000000e+00	
308	1.516400e-08	0.000000e+00	0.000000e+00	0.000000e+00	
309	1.521400e-08	0.000000e+00	0.000000e+00	0.000000e+00	
310	1.526400e-08	0.000000e+00	0.000000e+00	0.000000e+00	
311	1.531400e-08	0.000000e+00	0.000000e+00	0.000000e+00	
312	1.536400e-08	0.000000e+00	0.000000e+00	0.000000e+00	
313	1.541400e-08	0.000000e+00	0.000000e+00	0.000000e+00	
314	1.546400e-08	0.000000e+00	0.000000e+00	0.000000e+00	
315	1.551400e-08	0.000000e+00	0.000000e+00	0.000000e+00	
316	1.556400e-08	0.000000e+00	0.000000e+00	0.000000e+00	
317	1.561400e-08	0.000000e+00	0.000000e+00	0.000000e+00	
318	1.566400e-08	0.000000e+00	0.000000e+00	0.000000e+00	
319	1.571400e-08	0.000000e+00	0.000000e+00	0.000000e+00	
320	1.576400e-08	0.000000e+00	0.000000e+00	0.000000e+00	
321	1.581400e-08	0.000000e+00	0.000000e+00	0.000000e+00	
322	1.586400e-08	0.000000e+00	0.000000e+00	0.000000e+00	
323	1.590000e-08	0.000000e+00	0.000000e+00	0.000000e+00	
324	1.590500e-08	1.610643e-02	-1.79516e-13	-1.40305e-15	
325	1.591500e-08	5.591464e-02	-7.30431e-13	-5.68374e-15	
326	1.593500e-08	1.204085e-01	-1.45120e-12	-1.30006e-14	
327	1.597500e-08	2.395031e-01	-2.76036e-03	-1.70599e-03	
328	1.602500e-08	4.018330e-01	-1.69811e-02	-1.04958e-02	
329	1.607500e-08	5.789948e-01	-3.25443e-02	-2.02304e-02	
330	1.610000e-08	6.639681e-01	-4.17321e-02	-2.59366e-02	
331	1.610500e-08	6.547115e-01	-4.36839e-02	-2.70106e-02	
332	1.611500e-08	6.566876e-01	-4.86910e-02	-3.00583e-02	
333	1.613500e-08	6.604582e-01	-5.86484e-02	-3.62343e-02	
334	1.617500e-08	6.698495e-01	-7.74639e-02	-4.79030e-02	
335	1.622500e-08	6.844447e-01	-1.41206e-01	1.789425e-02	
336	1.627500e-08	6.957245e-01	-2.22634e-01	1.013900e-01	
337	1.632500e-08	7.079473e-01	-2.62334e-01	1.228789e-01	
338	1.637500e-08	7.200002e-01	-2.24183e-01	8.811304e-02	
339	1.642500e-08	7.314385e-01	-5.95076e-02	2.481736e-02	
340	1.647500e-08	7.613273e-01	1.368278e-01	-7.52941e-02	
341	1.652500e-08	8.453092e-01	2.773426e-01	-9.65504e-02	
342	1.657500e-08	9.433235e-01	3.350071e-01	-6.09638e-02	
343	1.662500e-08	1.043384e+00	3.172132e-01	-7.19163e-02	
344	1.667500e-08	1.127175e+00	2.997849e-01	-8.27464e-02	

Index   time            v(2)            v(7)            v(9)            
--------------------------------------------------------------------------------
345	1.672500e-08	1.207156e+00	2.803354e-01	-8.95400e-02	
346	1.677500e-08	1.338024e+00	2.466900e-01	-7.25811e-02	
347	1.682500e-08	1.478888e+00	1.891277e-01	-1.61309e-02	
348	1.687500e-08	1.670146e+00	1.259162e-01	5.029616e-02	
349	1.692500e-08	1.806794e+00	6.412297e-02	1.151590e-01	
350	1.697500e-08	1.876835e+00	1.672713e-02	1.574219e-01	
351	1.702500e-08	1.936271e+00	-5.22843e-03	1.592224e-01	
352	1.707500e-08	1.986523e+00	-2.05778e-02	1.509182e-01	
353	1.712500e-08	2.057081e+00	-1.02635e-02	1.017175e-01	
354	1.717500e-08	2.133701e+00	3.299456e-02	-8.72584e-05	
355	1.722500e-08	2.203933e+00	7.792676e-02	-1.04010e-01	
356	1.727500e-08	2.249980e+00	1.415214e-01	-2.11000e-01	
357	1.732500e-08	2.266151e+00	2.046424e-01	-2.36620e-01	
358	1.737500e-08	2.275101e+00	2.406524e-01	-1.74763e-01	
359	1.742500e-08	2.283318e+00	2.622016e-01	-8.54526e-02	
360	1.747500e-08	2.291425e+00	2.681600e-01	-1.64519e-03	
361	1.752500e-08	2.331739e+00	2.442623e-01	5.088590e-02	
362	1.757500e-08	2.419269e+00	2.179206e-01	7.105093e-02	
363	1.762500e-08	2.522950e+00	2.027691e-01	6.890543e-02	
364	1.767500e-08	2.656051e+00	1.908591e-01	6.198525e-02	
365	1.772500e-08	2.769988e+00	1.793528e-01	5.492904e-02	
366	1.777500e-08	2.854552e+00	1.680044e-01	4.813538e-02	
367	1.782500e-08	2.931826e+00	1.561381e-01	4.265928e-02	
368	1.787500e-08	2.991559e+00	1.414265e-01	4.227724e-02	
369	1.792500e-08	3.030539e+00	1.345084e-01	2.978887e-02	
370	1.797500e-08	3.050519e+00	1.394413e-01	-1.40353e-03	
371	1.802500e-08	3.059880e+00	1.421625e-01	-2.85420e-02	
372	1.807500e-08	3.066936e+00	1.515317e-01	-6.59350e-02	
373	1.812500e-08	3.075439e+00	1.506938e-01	-8.63641e-02	
374	1.817500e-08	3.089775e+00	1.425966e-01	-8.46236e-02	
375	1.822500e-08	3.115477e+00	1.525236e-01	-7.60632e-02	
376	1.827500e-08	3.153809e+00	1.784995e-01	-5.97645e-02	
377	1.832500e-08	3.216954e+00	2.101894e-01	-3.99915e-02	
378	1.837500e-08	3.304473e+00	2.372286e-01	-2.22160e-02	
379	1.842500e-08	3.386646e+00	2.465541e-01	-1.19303e-02	
380	1.847500e-08	3.461973e+00	2.381954e-01	-3.82540e-03	
381	1.852500e-08	3.507382e+00	2.184357e-01	1.155871e-02	
382	1.857500e-08	3.521677e+00	1.919784e-01	3.616674e-02	
383	1.862500e-08	3.529865e+00	1.637964e-01	6.382513e-02	
384	1.867500e-08	3.544693e+00	1.389692e-01	8.644409e-02	
385	1.872500e-08	3.569950e+00	1.296534e-01	8.431730e-02	
386	1.877500e-08	3.605379e+00	1.409642e-01	4.914098e-02	
387	1.882500e-08	3.648617e+00	1.594929e-01	2.602292e-03	
388	1.887500e-08	3.692104e+00	1.820449e-01	-5.01350e-02	
389	1.892500e-08	3.729167e+00	1.944113e-01	-8.60871e-02	
390	1.897500e-08	3.756947e+00	1.916246e-01	-9.72020e-02	
391	1.902500e-08	3.774521e+00	1.823145e-01	-9.74434e-02	
392	1.907500e-08	3.783642e+00	1.702937e-01	-8.92207e-02	
393	1.912500e-08	3.800222e+00	1.606136e-01	-6.90235e-02	
394	1.917500e-08	3.834705e+00	1.570063e-01	-3.82331e-02	
395	1.922500e-08	3.875372e+00	1.594844e-01	-4.54225e-03	
396	1.927500e-08	3.922039e+00	1.655238e-01	2.337781e-02	
397	1.932500e-08	3.959571e+00	1.696213e-01	3.925232e-02	
398	1.937500e-08	3.983550e+00	1.690172e-01	4.348810e-02	
399	1.942500e-08	4.006645e+00	1.649684e-01	4.180000e-02	
400	1.947500e-08	4.031660e+00	1.594509e-01	3.875895e-02	
401	1.952500e-08	4.055479e+00	1.586907e-01	2.749391e-02	
402	1.957500e-08	4.076528e+00	1.659395e-01	3.437348e-03	

Index   time            v(2)            v(7)            v(9)            
--------------------------------------------------------------------------------
403	1.962500e-08	4.095091e+00	1.742923e-01	-2.21648e-02	
404	1.967500e-08	4.111892e+00	1.818125e-01	-4.61761e-02	
405	1.972500e-08	4.127230e+00	1.806506e-01	-5.58978e-02	
406	1.977500e-08	4.139712e+00	1.690511e-01	-4.84892e-02	
407	1.982500e-08	4.148821e+00	1.551394e-01	-3.71054e-02	
408	1.987500e-08	4.156930e+00	1.437193e-01	-2.95295e-02	
409	1.992500e-08	4.174218e+00	1.356739e-01	-2.71984e-02	
410	1.997500e-08	4.207681e+00	1.305868e-01	-2.80269e-02	
411	2.002500e-08	4.249522e+00	1.293329e-01	-2.82645e-02	
412	2.007500e-08	4.295153e+00	1.329445e-01	-2.53339e-02	
413	2.012500e-08	4.330777e+00	1.401497e-01	-1.87873e-02	
414	2.017500e-08	4.349169e+00	1.474671e-01	-9.23244e-03	
415	2.022500e-08	4.357401e+00	1.503227e-01	2.199118e-03	
416	2.027500e-08	4.361569e+00	1.462369e-01	1.453918e-02	
417	2.032500e-08	4.364663e+00	1.399640e-01	2.176381e-02	
418	2.037500e-08	4.367990e+00	1.377115e-01	1.822279e-02	
419	2.042500e-08	4.372645e+00	1.392489e-01	7.293225e-03	
420	2.047500e-08	4.380640e+00	1.448400e-01	-1.03235e-02	
421	2.052500e-08	4.393862e+00	1.493332e-01	-2.60387e-02	
422	2.057500e-08	4.412250e+00	1.490115e-01	-3.38041e-02	
423	2.062500e-08	4.433234e+00	1.460460e-01	-3.71305e-02	
424	2.067500e-08	4.452680e+00	1.421069e-01	-3.87232e-02	
425	2.072500e-08	4.471401e+00	1.373669e-01	-3.88635e-02	
426	2.077500e-08	4.492299e+00	1.313926e-01	-3.68508e-02	
427	2.082500e-08	4.512997e+00	1.238201e-01	-3.20962e-02	
428	2.087500e-08	4.534036e+00	1.150763e-01	-2.47576e-02	
429	2.092500e-08	4.550535e+00	1.070367e-01	-1.56331e-02	
430	2.097500e-08	4.559455e+00	1.021415e-01	-5.97625e-03	
431	2.102500e-08	4.565257e+00	1.015121e-01	2.801207e-03	
432	2.107500e-08	4.571784e+00	1.042229e-01	9.630616e-03	
433	2.112500e-08	4.580393e+00	1.097385e-01	1.083644e-02	
434	2.117500e-08	4.590765e+00	1.174532e-01	3.597609e-03	
435	2.122500e-08	4.601531e+00	1.247640e-01	-8.50411e-03	
436	2.127500e-08	4.611029e+00	1.312330e-01	-2.28997e-02	
437	2.132500e-08	4.618238e+00	1.343370e-01	-3.34256e-02	
438	2.137500e-08	4.623497e+00	1.322188e-01	-3.59087e-02	
439	2.142500e-08	4.628129e+00	1.266283e-01	-3.27650e-02	
440	2.147500e-08	4.633328e+00	1.195761e-01	-2.71512e-02	
441	2.152500e-08	4.641955e+00	1.124248e-01	-2.12590e-02	
442	2.157500e-08	4.656161e+00	1.061224e-01	-1.66252e-02	
443	2.162500e-08	4.673549e+00	1.011464e-01	-1.40283e-02	
444	2.167500e-08	4.693006e+00	9.743557e-02	-1.33744e-02	
445	2.172500e-08	4.710784e+00	9.454783e-02	-1.39503e-02	
446	2.177500e-08	4.723784e+00	9.206153e-02	-1.48736e-02	
447	2.182500e-08	4.733090e+00	8.999719e-02	-1.52248e-02	
448	2.187500e-08	4.739905e+00	8.870697e-02	-1.40832e-02	
449	2.192500e-08	4.744631e+00	8.942997e-02	-1.26859e-02	
450	2.197500e-08	4.747693e+00	9.288358e-02	-1.30016e-02	
451	2.202500e-08	4.749780e+00	9.729418e-02	-1.43846e-02	
452	2.207500e-08	4.751601e+00	1.013812e-01	-1.71952e-02	
453	2.212500e-08	4.753703e+00	1.033370e-01	-1.96512e-02	
454	2.217500e-08	4.756527e+00	1.024158e-01	-2.00814e-02	
455	2.222500e-08	4.760465e+00	1.001241e-01	-1.97777e-02	
456	2.227500e-08	4.765823e+00	9.775686e-02	-1.99207e-02	
457	2.232500e-08	4.774120e+00	9.561522e-02	-2.05464e-02	
458	2.237500e-08	4.786538e+00	9.352471e-02	-2.12191e-02	
459	2.242500e-08	4.801081e+00	9.123730e-02	-2.15011e-02	
460	2.247500e-08	4.815836e+00	8.853318e-02	-2.10317e-02	

Index   time            v(2)            v(7)            v(9)            
--------------------------------------------------------------------------------
461	2.252500e-08	4.827659e+00	8.524764e-02	-1.95444e-02	
462	2.257500e-08	4.834542e+00	8.136536e-02	-1.70152e-02	
463	2.262500e-08	4.837975e+00	7.709385e-02	-1.37801e-02	
464	2.267500e-08	4.840096e+00	7.286337e-02	-1.04600e-02	
465	2.272500e-08	4.842185e+00	6.998062e-02	-8.77107e-03	
466	2.277500e-08	4.844855e+00	6.987783e-02	-1.02716e-02	
467	2.282500e-08	4.848372e+00	7.239594e-02	-1.40862e-02	
468	2.287500e-08	4.852704e+00	7.684287e-02	-1.92019e-02	
469	2.292500e-08	4.857487e+00	8.130427e-02	-2.35038e-02	
470	2.297500e-08	4.862139e+00	8.388625e-02	-2.53212e-02	
471	2.302500e-08	4.866106e+00	8.433028e-02	-2.52244e-02	
472	2.307500e-08	4.869097e+00	8.312876e-02	-2.41356e-02	
473	2.312500e-08	4.872086e+00	8.079395e-02	-2.23876e-02	
474	2.317500e-08	4.876576e+00	7.776913e-02	-2.01043e-02	
475	2.322500e-08	4.882610e+00	7.447639e-02	-1.75795e-02	
476	2.327500e-08	4.890076e+00	7.130973e-02	-1.52763e-02	
477	2.332500e-08	4.897690e+00	6.855930e-02	-1.36078e-02	
478	2.337500e-08	4.904065e+00	6.634178e-02	-1.27506e-02	
479	2.342500e-08	4.909370e+00	6.459148e-02	-1.25974e-02	
480	2.347500e-08	4.914130e+00	6.312778e-02	-1.28564e-02	
481	2.352500e-08	4.918433e+00	6.216668e-02	-1.38777e-02	
482	2.357500e-08	4.922094e+00	6.209351e-02	-1.62567e-02	
483	2.362500e-08	4.924948e+00	6.264437e-02	-1.94008e-02	
484	2.367500e-08	4.927000e+00	6.360445e-02	-2.25914e-02	
485	2.372500e-08	4.928436e+00	6.440018e-02	-2.45000e-02	
486	2.377500e-08	4.929544e+00	6.448947e-02	-2.41411e-02	
487	2.382500e-08	4.930615e+00	6.405930e-02	-2.21918e-02	
488	2.387500e-08	4.931893e+00	6.344881e-02	-1.99310e-02	
489	2.392500e-08	4.934094e+00	6.276645e-02	-1.82208e-02	
490	2.397500e-08	4.938044e+00	6.199769e-02	-1.73273e-02	
491	2.402500e-08	4.943493e+00	6.113295e-02	-1.71023e-02	
492	2.407500e-08	4.949884e+00	6.017227e-02	-1.72249e-02	
493	2.412500e-08	4.956004e+00	5.909190e-02	-1.73749e-02	
494	2.417500e-08	4.960691e+00	5.784261e-02	-1.73102e-02	
495	2.422500e-08	4.963955e+00	5.637136e-02	-1.68762e-02	
496	2.427500e-08	4.966322e+00	5.465670e-02	-1.60160e-02	
497	2.432500e-08	4.968177e+00	5.299626e-02	-1.52061e-02	
498	2.437500e-08	4.969718e+00	5.187021e-02	-1.52231e-02	
499	2.442500e-08	4.971103e+00	5.135893e-02	-1.61982e-02	
500	2.447500e-08	4.972513e+00	5.141585e-02	-1.80462e-02	
501	2.452500e-08	4.974112e+00	5.166390e-02	-2.00897e-02	
502	2.457500e-08	4.975987e+00	5.167953e-02	-2.14695e-02	
503	2.462500e-08	4.978092e+00	5.151326e-02	-2.20360e-02	
504	2.467500e-08	4.980263e+00	5.138674e-02	-2.20150e-02	
505	2.472500e-08	4.982607e+00	5.134036e-02	-2.15798e-02	
506	2.477500e-08	4.985429e+00	5.121500e-02	-2.08213e-02	
507	2.482500e-08	4.988591e+00	5.079993e-02	-1.98167e-02	
508	2.487500e-08	4.991895e+00	4.998260e-02	-1.86533e-02	
509	2.492500e-08	4.994861e+00	4.881058e-02	-1.74362e-02	
510	2.497500e-08	4.997013e+00	4.745197e-02	-1.62973e-02	
511	2.502500e-08	4.998538e+00	4.610110e-02	-1.53757e-02	
512	2.507500e-08	4.999945e+00	4.489699e-02	-1.47690e-02	
513	2.512500e-08	5.001586e+00	4.404146e-02	-1.47372e-02	
514	2.517500e-08	5.003538e+00	4.374118e-02	-1.55887e-02	
515	2.522500e-08	5.005666e+00	4.390111e-02	-1.71618e-02	
516	2.527500e-08	5.007731e+00	4.431571e-02	-1.91221e-02	
517	2.532500e-08	5.009513e+00	4.461259e-02	-2.08670e-02	
518	2.537500e-08	5.010898e+00	4.442190e-02	-2.17941e-02	

Index   time            v(2)            v(7)            v(9)            
--------------------------------------------------------------------------------
519	2.542500e-08	5.011903e+00	4.372556e-02	-2.18461e-02	
520	2.547500e-08	5.012638e+00	4.275089e-02	-2.13109e-02	
521	2.552500e-08	5.013443e+00	4.175341e-02	-2.04774e-02	
522	2.557500e-08	5.014769e+00	4.092413e-02	-1.95526e-02	
523	2.562500e-08	5.016713e+00	4.035458e-02	-1.86922e-02	
524	2.567500e-08	5.019179e+00	4.002245e-02	-1.80102e-02	
525	2.572500e-08	5.021784e+00	3.981764e-02	-1.75609e-02	
526	2.577500e-08	5.024046e+00	3.960723e-02	-1.73263e-02	
527	2.582500e-08	5.025822e+00	3.929404e-02	-1.72265e-02	
528	2.587500e-08	5.027213e+00	3.883481e-02	-1.71517e-02	
529	2.592500e-08	5.028327e+00	3.831631e-02	-1.71483e-02	
530	2.597500e-08	5.029237e+00	3.790605e-02	-1.73991e-02	
531	2.602500e-08	5.030017e+00	3.763714e-02	-1.79017e-02	
532	2.607500e-08	5.030751e+00	3.748038e-02	-1.85816e-02	
533	2.612500e-08	5.031502e+00	3.730648e-02	-1.92195e-02	
534	2.617500e-08	5.032307e+00	3.696128e-02	-1.95630e-02	
535	2.622500e-08	5.033179e+00	3.645686e-02	-1.96313e-02	
536	2.627500e-08	5.034124e+00	3.590692e-02	-1.96071e-02	
537	2.632500e-08	5.035247e+00	3.539262e-02	-1.96107e-02	
538	2.637500e-08	5.036716e+00	3.493648e-02	-1.96429e-02	
539	2.642500e-08	5.038488e+00	3.453554e-02	-1.96349e-02	
540	2.647500e-08	5.040400e+00	3.418168e-02	-1.95073e-02	
541	2.652500e-08	5.042159e+00	3.385716e-02	-1.92097e-02	
542	2.657500e-08	5.043465e+00	3.352836e-02	-1.87427e-02	
543	2.662500e-08	5.044297e+00	3.315541e-02	-1.81602e-02	
544	2.667500e-08	5.044838e+00	3.271534e-02	-1.75507e-02	
545	2.672500e-08	5.045286e+00	3.227377e-02	-1.70965e-02	
546	2.677500e-08	5.045766e+00	3.196780e-02	-1.70260e-02	
547	2.682500e-08	5.046344e+00	3.185424e-02	-1.73899e-02	
548	2.687500e-08	5.047044e+00	3.191239e-02	-1.81017e-02	
549	2.692500e-08	5.047857e+00	3.201927e-02	-1.89205e-02	
550	2.697500e-08	5.048738e+00	3.200723e-02	-1.95511e-02	
551	2.702500e-08	5.049616e+00	3.180989e-02	-1.98750e-02	
552	2.707500e-08	5.050415e+00	3.145836e-02	-1.99384e-02	
553	2.712500e-08	5.051152e+00	3.100296e-02	-1.98216e-02	
554	2.717500e-08	5.051949e+00	3.048100e-02	-1.95842e-02	
555	2.722500e-08	5.052862e+00	2.992532e-02	-1.92749e-02	
556	2.727500e-08	5.053895e+00	2.937634e-02	-1.89434e-02	
557	2.732500e-08	5.054951e+00	2.888174e-02	-1.86352e-02	
558	2.737500e-08	5.055879e+00	2.848404e-02	-1.83803e-02	
559	2.742500e-08	5.056643e+00	2.820286e-02	-1.81870e-02	
560	2.747500e-08	5.057309e+00	2.802330e-02	-1.80458e-02	
561	2.752500e-08	5.057935e+00	2.793241e-02	-1.79911e-02	
562	2.757500e-08	5.058529e+00	2.793466e-02	-1.81034e-02	
563	2.762500e-08	5.059067e+00	2.799678e-02	-1.83863e-02	
564	2.767500e-08	5.059525e+00	2.806810e-02	-1.87795e-02	
565	2.772500e-08	5.059901e+00	2.807382e-02	-1.91498e-02	
566	2.777500e-08	5.060217e+00	2.793773e-02	-1.93453e-02	
567	2.782500e-08	5.060514e+00	2.765697e-02	-1.93338e-02	
568	2.787500e-08	5.060837e+00	2.729472e-02	-1.91982e-02	
569	2.792500e-08	5.061257e+00	2.692057e-02	-1.90411e-02	
570	2.797500e-08	5.061868e+00	2.657629e-02	-1.89257e-02	
571	2.802500e-08	5.062684e+00	2.627409e-02	-1.88705e-02	
572	2.807500e-08	5.063648e+00	2.600649e-02	-1.88628e-02	
573	2.812500e-08	5.064627e+00	2.575688e-02	-1.88739e-02	
574	2.817500e-08	5.065462e+00	2.550903e-02	-1.88708e-02	
575	2.822500e-08	5.066078e+00	2.525420e-02	-1.88239e-02	
576	2.827500e-08	5.066504e+00	2.499358e-02	-1.87134e-02	

Index   time            v(2)            v(7)            v(9)            
--------------------------------------------------------------------------------
577	2.832500e-08	5.066805e+00	2.475539e-02	-1.85674e-02	
578	2.837500e-08	5.067040e+00	2.458974e-02	-1.84665e-02	
579	2.842500e-08	5.067252e+00	2.451679e-02	-1.84664e-02	
580	2.847500e-08	5.067474e+00	2.452304e-02	-1.85848e-02	
581	2.852500e-08	5.067727e+00	2.455841e-02	-1.87790e-02	
582	2.857500e-08	5.068021e+00	2.455551e-02	-1.89620e-02	
583	2.862500e-08	5.068355e+00	2.448280e-02	-1.90841e-02	
584	2.867500e-08	5.068714e+00	2.435069e-02	-1.91498e-02	
585	2.872500e-08	5.069107e+00	2.418010e-02	-1.91761e-02	
586	2.877500e-08	5.069566e+00	2.398272e-02	-1.91685e-02	
587	2.882500e-08	5.070098e+00	2.376155e-02	-1.91231e-02	
588	2.887500e-08	5.070677e+00	2.351817e-02	-1.90383e-02	
589	2.892500e-08	5.071244e+00	2.325767e-02	-1.89205e-02	
590	2.897500e-08	5.071721e+00	2.298996e-02	-1.87852e-02	
591	2.902500e-08	5.072084e+00	2.272821e-02	-1.86530e-02	
592	2.907500e-08	5.072368e+00	2.248585e-02	-1.85424e-02	
593	2.912500e-08	5.072624e+00	2.228568e-02	-1.84834e-02	
594	2.917500e-08	5.072883e+00	2.215965e-02	-1.85162e-02	
595	2.922500e-08	5.073156e+00	2.211931e-02	-1.86480e-02	
596	2.927500e-08	5.073433e+00	2.214995e-02	-1.88507e-02	
597	2.932500e-08	5.073698e+00	2.220807e-02	-1.90621e-02	
598	2.937500e-08	5.073938e+00	2.223451e-02	-1.92059e-02	
599	2.942500e-08	5.074142e+00	2.219285e-02	-1.92464e-02	
600	2.947500e-08	5.074313e+00	2.208277e-02	-1.92002e-02	
601	2.952500e-08	5.074476e+00	2.192435e-02	-1.91058e-02	
602	2.957500e-08	5.074680e+00	2.174138e-02	-1.89981e-02	
603	2.962500e-08	5.074960e+00	2.155397e-02	-1.89008e-02	
604	2.967500e-08	5.075323e+00	2.137615e-02	-1.88277e-02	
605	2.972500e-08	5.075736e+00	2.121490e-02	-1.87837e-02	
606	2.977500e-08	5.076143e+00	2.107043e-02	-1.87655e-02	
607	2.982500e-08	5.076501e+00	2.093779e-02	-1.87634e-02	
608	2.987500e-08	5.076800e+00	2.080944e-02	-1.87645e-02	
609	2.992500e-08	5.077045e+00	2.068520e-02	-1.87678e-02	
610	2.997500e-08	5.077246e+00	2.057669e-02	-1.87910e-02	
611	3.002500e-08	5.077408e+00	2.049252e-02	-1.88446e-02	
612	3.007500e-08	5.077541e+00	2.043391e-02	-1.89248e-02	
613	3.012500e-08	5.077657e+00	2.039105e-02	-1.90087e-02	
614	3.017500e-08	5.077768e+00	2.034562e-02	-1.90625e-02	
615	3.022500e-08	5.077887e+00	2.028753e-02	-1.90717e-02	
616	3.027500e-08	5.078020e+00	2.021987e-02	-1.90503e-02	
617	3.032500e-08	5.078178e+00	2.014889e-02	-1.90214e-02	
618	3.037500e-08	5.078379e+00	2.007613e-02	-1.89992e-02	
619	3.042500e-08	5.078629e+00	1.999857e-02	-1.89853e-02	
620	3.047500e-08	5.078915e+00	1.991212e-02	-1.89735e-02	
621	3.052500e-08	5.079206e+00	1.981410e-02	-1.89554e-02	
622	3.057500e-08	5.079463e+00	1.970409e-02	-1.89252e-02	
623	3.062500e-08	5.079664e+00	1.958400e-02	-1.88814e-02	
624	3.067500e-08	5.079817e+00	1.945773e-02	-1.88274e-02	
625	3.072500e-08	5.079942e+00	1.933487e-02	-1.87771e-02	
626	3.077500e-08	5.080058e+00	1.923131e-02	-1.87555e-02	
627	3.082500e-08	5.080176e+00	1.915817e-02	-1.87803e-02	
628	3.087500e-08	5.080300e+00	1.911653e-02	-1.88526e-02	
629	3.092500e-08	5.080431e+00	1.909541e-02	-1.89531e-02	
630	3.097500e-08	5.080564e+00	1.907549e-02	-1.90478e-02	
631	3.102500e-08	5.080695e+00	1.904267e-02	-1.91098e-02	
632	3.107500e-08	5.080817e+00	1.899455e-02	-1.91321e-02	
633	3.112500e-08	5.080931e+00	1.893513e-02	-1.91209e-02	
634	3.117500e-08	5.081049e+00	1.886812e-02	-1.90857e-02	

Index   time            v(2)            v(7)            v(9)            
--------------------------------------------------------------------------------
635	3.122500e-08	5.081183e+00	1.879519e-02	-1.90360e-02	
636	3.127500e-08	5.081337e+00	1.871732e-02	-1.89807e-02	
637	3.132500e-08	5.081502e+00	1.863644e-02	-1.89282e-02	
638	3.137500e-08	5.081661e+00	1.855548e-02	-1.88850e-02	
639	3.142500e-08	5.081803e+00	1.847749e-02	-1.88549e-02	
640	3.147500e-08	5.081928e+00	1.840427e-02	-1.88380e-02	
641	3.152500e-08	5.082046e+00	1.833835e-02	-1.88355e-02	
642	3.157500e-08	5.082160e+00	1.828455e-02	-1.88530e-02	
643	3.162500e-08	5.082269e+00	1.824500e-02	-1.88928e-02	
644	3.167500e-08	5.082372e+00	1.821698e-02	-1.89497e-02	
645	3.172500e-08	5.082462e+00	1.819225e-02	-1.90099e-02	
646	3.177500e-08	5.082540e+00	1.815937e-02	-1.90548e-02	
647	3.182500e-08	5.082608e+00	1.811170e-02	-1.90729e-02	
648	3.187500e-08	5.082665e+00	1.805312e-02	-1.90665e-02	
649	3.190000e-08	5.082697e+00	1.801929e-02	-1.90562e-02	
650	3.190500e-08	5.066600e+00	1.801076e-02	-1.90519e-02	
651	3.191500e-08	5.046241e+00	1.800251e-02	-1.90524e-02	
652	3.193500e-08	4.976481e+00	1.797527e-02	-1.90438e-02	
653	3.197500e-08	4.847652e+00	2.079300e-02	-1.72538e-02	
654	3.202500e-08	4.694909e+00	3.445427e-02	-8.78484e-03	
655	3.207500e-08	4.527276e+00	4.953481e-02	6.032849e-04	
656	3.210000e-08	4.442119e+00	5.957219e-02	6.853044e-03	
657	3.210500e-08	4.432100e+00	6.253816e-02	8.819579e-03	
658	3.211500e-08	4.430431e+00	6.741855e-02	1.176556e-02	
659	3.213500e-08	4.426830e+00	7.709699e-02	1.778043e-02	
660	3.217500e-08	4.416778e+00	9.649542e-02	2.983306e-02	
661	3.222500e-08	4.402834e+00	1.564015e-01	-3.06699e-02	
662	3.227500e-08	4.391563e+00	2.405114e-01	-1.18398e-01	
663	3.232500e-08	4.379444e+00	2.840613e-01	-1.46472e-01	
664	3.237500e-08	4.367490e+00	2.441166e-01	-1.00006e-01	
665	3.242500e-08	4.356141e+00	8.091240e-02	-4.26693e-02	
666	3.247500e-08	4.329440e+00	-9.90304e-02	4.813828e-02	
667	3.252500e-08	4.248910e+00	-2.42149e-01	7.705307e-02	
668	3.257500e-08	4.148637e+00	-3.04718e-01	3.842701e-02	
669	3.262500e-08	4.050585e+00	-2.87392e-01	4.898967e-02	
670	3.267500e-08	3.967157e+00	-2.70469e-01	5.950776e-02	
671	3.272500e-08	3.891372e+00	-2.51869e-01	6.655390e-02	
672	3.277500e-08	3.759474e+00	-2.20204e-01	5.170690e-02	
673	3.282500e-08	3.618370e+00	-1.64100e-01	-3.44662e-03	
674	3.287500e-08	3.439636e+00	-1.00439e-01	-7.16425e-02	
675	3.292500e-08	3.301769e+00	-3.98166e-02	-1.35636e-01	
676	3.297500e-08	3.233540e+00	7.538062e-03	-1.78825e-01	
677	3.302500e-08	3.173880e+00	3.023262e-02	-1.82789e-01	
678	3.307500e-08	3.125436e+00	4.464055e-02	-1.73924e-01	
679	3.312500e-08	3.055933e+00	3.719579e-02	-1.30301e-01	
680	3.317500e-08	2.978879e+00	-7.49823e-03	-2.70862e-02	
681	3.322500e-08	2.909481e+00	-5.40876e-02	7.860581e-02	
682	3.327500e-08	2.862928e+00	-1.10691e-01	1.773949e-01	
683	3.332500e-08	2.845890e+00	-1.76335e-01	2.067763e-01	
684	3.337500e-08	2.837743e+00	-2.11122e-01	1.483094e-01	
685	3.342500e-08	2.829852e+00	-2.30857e-01	6.056722e-02	
686	3.347500e-08	2.822021e+00	-2.37959e-01	-2.44472e-02	
687	3.352500e-08	2.786258e+00	-2.15375e-01	-7.75295e-02	
688	3.357500e-08	2.698340e+00	-1.89025e-01	-9.87707e-02	
689	3.362500e-08	2.594253e+00	-1.73866e-01	-9.74214e-02	
690	3.367500e-08	2.469730e+00	-1.62500e-01	-9.03917e-02	
691	3.372500e-08	2.355108e+00	-1.51372e-01	-8.34687e-02	
692	3.377500e-08	2.270376e+00	-1.40381e-01	-7.68317e-02	

Index   time            v(2)            v(7)            v(9)            
--------------------------------------------------------------------------------
693	3.382500e-08	2.194399e+00	-1.28903e-01	-7.14482e-02	
694	3.387500e-08	2.135469e+00	-1.14801e-01	-7.07790e-02	
695	3.392500e-08	2.096255e+00	-1.06754e-01	-6.07970e-02	
696	3.397500e-08	2.076300e+00	-1.12811e-01	-2.84570e-02	
697	3.402500e-08	2.067022e+00	-1.16674e-01	-1.26443e-04	
698	3.407500e-08	2.060243e+00	-1.22871e-01	3.149146e-02	
699	3.412500e-08	2.052091e+00	-1.22839e-01	5.258694e-02	
700	3.417500e-08	2.038449e+00	-1.14318e-01	5.104562e-02	
701	3.422500e-08	2.013723e+00	-1.23978e-01	4.246766e-02	
702	3.427500e-08	1.976094e+00	-1.49175e-01	2.687568e-02	
703	3.432500e-08	1.915684e+00	-1.79665e-01	7.875217e-03	
704	3.437500e-08	1.827903e+00	-2.06822e-01	-9.86293e-03	
705	3.442500e-08	1.744624e+00	-2.17006e-01	-2.03409e-02	
706	3.447500e-08	1.673350e+00	-2.09434e-01	-2.82751e-02	
707	3.452500e-08	1.627512e+00	-1.90364e-01	-4.31959e-02	
708	3.457500e-08	1.613095e+00	-1.64372e-01	-6.75960e-02	
709	3.462500e-08	1.605328e+00	-1.36403e-01	-9.54356e-02	
710	3.467500e-08	1.591020e+00	-1.11719e-01	-1.18335e-01	
711	3.472500e-08	1.566690e+00	-1.01297e-01	-1.18503e-01	
712	3.477500e-08	1.532585e+00	-1.12741e-01	-8.36037e-02	
713	3.482500e-08	1.490214e+00	-1.31981e-01	-3.63947e-02	
714	3.487500e-08	1.446969e+00	-1.52830e-01	1.311710e-02	
715	3.492500e-08	1.409842e+00	-1.65557e-01	4.918970e-02	
716	3.497500e-08	1.382005e+00	-1.63259e-01	6.064302e-02	
717	3.502500e-08	1.364368e+00	-1.54351e-01	6.109123e-02	
718	3.507500e-08	1.355209e+00	-1.42529e-01	5.332024e-02	
719	3.512500e-08	1.340292e+00	-1.32959e-01	3.356869e-02	
720	3.517500e-08	1.306007e+00	-1.29083e-01	3.144254e-03	
721	3.522500e-08	1.264870e+00	-1.30907e-01	-3.02186e-02	
722	3.527500e-08	1.220950e+00	-1.36626e-01	-5.81547e-02	
723	3.532500e-08	1.183816e+00	-1.40894e-01	-7.43550e-02	
724	3.537500e-08	1.160045e+00	-1.40579e-01	-7.89150e-02	
725	3.542500e-08	1.137297e+00	-1.36787e-01	-7.73746e-02	
726	3.547500e-08	1.112483e+00	-1.31488e-01	-7.43964e-02	
727	3.552500e-08	1.088810e+00	-1.30221e-01	-6.43244e-02	
728	3.557500e-08	1.067889e+00	-1.37684e-01	-4.02831e-02	
729	3.562500e-08	1.049538e+00	-1.46665e-01	-1.40182e-02	
730	3.567500e-08	1.033156e+00	-1.53381e-01	8.347621e-03	
731	3.572500e-08	1.018180e+00	-1.52428e-01	1.806906e-02	
732	3.577500e-08	1.005852e+00	-1.41131e-01	1.081998e-02	
733	3.582500e-08	9.968515e-01	-1.27352e-01	-6.71968e-04	
734	3.587500e-08	9.889574e-01	-1.16003e-01	-8.44985e-03	
735	3.592500e-08	9.729086e-01	-1.08028e-01	-1.09787e-02	
736	3.597500e-08	9.398982e-01	-1.02956e-01	-1.02185e-02	
737	3.602500e-08	8.979075e-01	-1.01685e-01	-9.93080e-03	
738	3.607500e-08	8.538182e-01	-1.05178e-01	-1.27305e-02	
739	3.612500e-08	8.183880e-01	-1.12149e-01	-1.89986e-02	
740	3.617500e-08	7.998208e-01	-1.19365e-01	-2.82583e-02	
741	3.622500e-08	7.915388e-01	-1.22402e-01	-3.95148e-02	
742	3.627500e-08	7.874274e-01	-1.18632e-01	-5.17852e-02	
743	3.632500e-08	7.844469e-01	-1.12179e-01	-5.97238e-02	
744	3.637500e-08	7.812546e-01	-1.09988e-01	-5.64109e-02	
745	3.642500e-08	7.768113e-01	-1.11783e-01	-4.53376e-02	
746	3.647500e-08	7.691331e-01	-1.16770e-01	-2.89526e-02	
747	3.652500e-08	7.562939e-01	-1.21211e-01	-1.35707e-02	
748	3.657500e-08	7.383215e-01	-1.21062e-01	-5.76854e-03	
749	3.662500e-08	7.176563e-01	-1.18251e-01	-2.42852e-03	
750	3.667500e-08	6.983276e-01	-1.14455e-01	-8.37663e-04	

Index   time            v(2)            v(7)            v(9)            
--------------------------------------------------------------------------------
751	3.672500e-08	6.801397e-01	-1.09875e-01	-6.64706e-04	
752	3.677500e-08	6.593413e-01	-1.04088e-01	-2.59640e-03	
753	3.682500e-08	6.384258e-01	-9.67102e-02	-7.25491e-03	
754	3.687500e-08	6.182835e-01	-8.80934e-02	-1.45216e-02	
755	3.692500e-08	6.020954e-01	-8.00914e-02	-2.36093e-02	
756	3.697500e-08	5.932177e-01	-7.51334e-02	-3.32582e-02	
757	3.702500e-08	5.875310e-01	-7.43357e-02	-4.20173e-02	
758	3.707500e-08	5.811874e-01	-7.68794e-02	-4.88248e-02	
759	3.712500e-08	5.727692e-01	-8.20992e-02	-5.04660e-02	
760	3.717500e-08	5.625420e-01	-8.98284e-02	-4.34053e-02	
761	3.722500e-08	5.518545e-01	-9.73850e-02	-3.11823e-02	
762	3.727500e-08	5.423870e-01	-1.03614e-01	-1.74199e-02	
763	3.732500e-08	5.351924e-01	-1.06740e-01	-7.06151e-03	
764	3.737500e-08	5.299764e-01	-1.04805e-01	-4.46528e-03	
765	3.742500e-08	5.254470e-01	-9.93798e-02	-7.51612e-03	
766	3.747500e-08	5.204167e-01	-9.24462e-02	-1.31080e-02	
767	3.752500e-08	5.123178e-01	-8.53738e-02	-1.90388e-02	
768	3.757500e-08	4.984101e-01	-7.91246e-02	-2.37492e-02	
769	3.762500e-08	4.810443e-01	-7.41929e-02	-2.64339e-02	
770	3.767500e-08	4.622043e-01	-7.05292e-02	-2.71678e-02	
771	3.772500e-08	4.447325e-01	-6.77057e-02	-2.66412e-02	
772	3.777500e-08	4.317849e-01	-6.52852e-02	-2.57315e-02	
773	3.782500e-08	4.224891e-01	-6.32700e-02	-2.53617e-02	
774	3.787500e-08	4.156795e-01	-6.20079e-02	-2.64433e-02	
775	3.792500e-08	4.109602e-01	-6.25724e-02	-2.79831e-02	
776	3.797500e-08	4.079162e-01	-6.59406e-02	-2.76501e-02	
777	3.802500e-08	4.058688e-01	-7.04149e-02	-2.60963e-02	
778	3.807500e-08	4.041114e-01	-7.43282e-02	-2.36420e-02	
779	3.812500e-08	4.020861e-01	-7.62473e-02	-2.14058e-02	
780	3.817500e-08	3.993543e-01	-7.53931e-02	-2.10375e-02	
781	3.822500e-08	3.955323e-01	-7.31658e-02	-2.13871e-02	
782	3.827500e-08	3.903016e-01	-7.08522e-02	-2.12902e-02	
783	3.832500e-08	3.823225e-01	-6.87680e-02	-2.06955e-02	
784	3.837500e-08	3.701096e-01	-6.67437e-02	-2.00353e-02	
785	3.842500e-08	3.555910e-01	-6.45312e-02	-1.97488e-02	
786	3.847500e-08	3.411784e-01	-6.19089e-02	-2.02001e-02	
787	3.852500e-08	3.295373e-01	-5.87121e-02	-2.16555e-02	
788	3.857500e-08	3.226722e-01	-5.49155e-02	-2.41556e-02	
789	3.862500e-08	3.192499e-01	-5.07143e-02	-2.73843e-02	
790	3.867500e-08	3.171695e-01	-4.65306e-02	-3.07225e-02	
791	3.872500e-08	3.151448e-01	-4.35749e-02	-3.25939e-02	
792	3.877500e-08	3.125537e-01	-4.34165e-02	-3.12061e-02	
793	3.882500e-08	3.091205e-01	-4.59364e-02	-2.73569e-02	
794	3.887500e-08	3.048669e-01	-5.02172e-02	-2.24397e-02	
795	3.892500e-08	3.001404e-01	-5.45835e-02	-1.82431e-02	
796	3.897500e-08	2.955185e-01	-5.71857e-02	-1.64149e-02	
797	3.902500e-08	2.915669e-01	-5.76987e-02	-1.64854e-02	
798	3.907500e-08	2.885858e-01	-5.65772e-02	-1.75548e-02	
799	3.912500e-08	2.857328e-01	-5.43191e-02	-1.92854e-02	
800	3.917500e-08	2.813491e-01	-5.13599e-02	-2.15586e-02	
801	3.922500e-08	2.753371e-01	-4.81181e-02	-2.40894e-02	
802	3.927500e-08	2.681114e-01	-4.49878e-02	-2.64182e-02	
803	3.932500e-08	2.607020e-01	-4.22662e-02	-2.81220e-02	
804	3.937500e-08	2.544344e-01	-4.00759e-02	-2.90152e-02	
805	3.942500e-08	2.491999e-01	-3.83549e-02	-2.91995e-02	
806	3.947500e-08	2.444911e-01	-3.69257e-02	-2.89615e-02	
807	3.952500e-08	2.402186e-01	-3.59492e-02	-2.80405e-02	
808	3.957500e-08	2.365728e-01	-3.58822e-02	-2.57211e-02	

Index   time            v(2)            v(7)            v(9)            
--------------------------------------------------------------------------------
809	3.962500e-08	2.337271e-01	-3.64885e-02	-2.25428e-02	
810	3.967500e-08	2.316843e-01	-3.74077e-02	-1.94514e-02	
811	3.972500e-08	2.302632e-01	-3.81674e-02	-1.76041e-02	
812	3.977500e-08	2.291789e-01	-3.82512e-02	-1.79479e-02	
813	3.982500e-08	2.281408e-01	-3.78196e-02	-1.98741e-02	
814	3.987500e-08	2.269049e-01	-3.72111e-02	-2.21360e-02	
815	3.992500e-08	2.248239e-01	-3.65423e-02	-2.38676e-02	
816	3.997500e-08	2.209767e-01	-3.57979e-02	-2.47889e-02	
817	4.002500e-08	2.155608e-01	-3.49638e-02	-2.50373e-02	
818	4.007500e-08	2.093057e-01	-3.40362e-02	-2.49298e-02	
819	4.012500e-08	2.032949e-01	-3.29921e-02	-2.47844e-02	
820	4.017500e-08	1.986481e-01	-3.17823e-02	-2.48449e-02	
821	4.022500e-08	1.954061e-01	-3.03521e-02	-2.52702e-02	
822	4.027500e-08	1.930652e-01	-2.86781e-02	-2.61209e-02	
823	4.032500e-08	1.912403e-01	-2.70211e-02	-2.69801e-02	
824	4.037500e-08	1.897286e-01	-2.58990e-02	-2.70105e-02	
825	4.042500e-08	1.883728e-01	-2.54165e-02	-2.60417e-02	
826	4.047500e-08	1.869964e-01	-2.54469e-02	-2.42866e-02	
827	4.052500e-08	1.854326e-01	-2.56698e-02	-2.23273e-02	
828	4.057500e-08	1.835934e-01	-2.56874e-02	-2.09764e-02	
829	4.062500e-08	1.815193e-01	-2.55308e-02	-2.04097e-02	
830	4.067500e-08	1.793713e-01	-2.54100e-02	-2.04199e-02	
831	4.072500e-08	1.770852e-01	-2.53682e-02	-2.08390e-02	
832	4.077500e-08	1.743093e-01	-2.52542e-02	-2.15805e-02	
833	4.082500e-08	1.711521e-01	-2.48610e-02	-2.25719e-02	
834	4.087500e-08	1.679154e-01	-2.40721e-02	-2.37289e-02	
835	4.092500e-08	1.650200e-01	-2.29292e-02	-2.49467e-02	
836	4.097500e-08	1.629049e-01	-2.15956e-02	-2.60930e-02	
837	4.102500e-08	1.614059e-01	-2.02641e-02	-2.70283e-02	
838	4.107500e-08	1.600309e-01	-1.90757e-02	-2.76520e-02	
839	4.112500e-08	1.584281e-01	-1.82150e-02	-2.77327e-02	
840	4.117500e-08	1.565149e-01	-1.79124e-02	-2.69245e-02	
841	4.122500e-08	1.544195e-01	-1.80918e-02	-2.53587e-02	
842	4.127500e-08	1.523756e-01	-1.85008e-02	-2.34451e-02	
843	4.132500e-08	1.506049e-01	-1.87939e-02	-2.17433e-02	
844	4.137500e-08	1.492257e-01	-1.86192e-02	-2.08261e-02	
845	4.142500e-08	1.482271e-01	-1.79469e-02	-2.07675e-02	
846	4.147500e-08	1.475021e-01	-1.69929e-02	-2.12958e-02	
847	4.152500e-08	1.467366e-01	-1.60084e-02	-2.21262e-02	
848	4.157500e-08	1.454538e-01	-1.51837e-02	-2.30511e-02	
849	4.162500e-08	1.435320e-01	-1.46132e-02	-2.39140e-02	
850	4.167500e-08	1.411229e-01	-1.42798e-02	-2.46007e-02	
851	4.172500e-08	1.385763e-01	-1.40789e-02	-2.50559e-02	
852	4.177500e-08	1.363474e-01	-1.38793e-02	-2.52964e-02	
853	4.182500e-08	1.345857e-01	-1.35822e-02	-2.54007e-02	
854	4.187500e-08	1.332028e-01	-1.31419e-02	-2.54774e-02	
855	4.192500e-08	1.320965e-01	-1.26314e-02	-2.54996e-02	
856	4.197500e-08	1.311960e-01	-1.22284e-02	-2.52670e-02	
857	4.202500e-08	1.304276e-01	-1.19774e-02	-2.47642e-02	
858	4.207500e-08	1.297104e-01	-1.18214e-02	-2.41108e-02	
859	4.212500e-08	1.289783e-01	-1.16434e-02	-2.35067e-02	
860	4.217500e-08	1.281935e-01	-1.13027e-02	-2.31824e-02	
861	4.222500e-08	1.273402e-01	-1.08082e-02	-2.31239e-02	
862	4.227500e-08	1.264136e-01	-1.02690e-02	-2.31559e-02	
863	4.232500e-08	1.253218e-01	-9.76520e-03	-2.31589e-02	
864	4.237500e-08	1.238832e-01	-9.31942e-03	-2.31306e-02	
865	4.242500e-08	1.221234e-01	-8.92829e-03	-2.31388e-02	
866	4.247500e-08	1.202383e-01	-8.58289e-03	-2.32628e-02	

Index   time            v(2)            v(7)            v(9)            
--------------------------------------------------------------------------------
867	4.252500e-08	1.185098e-01	-8.26560e-03	-2.35539e-02	
868	4.257500e-08	1.172189e-01	-7.94381e-03	-2.40137e-02	
869	4.262500e-08	1.163951e-01	-7.57864e-03	-2.45916e-02	
870	4.267500e-08	1.158613e-01	-7.14747e-03	-2.52007e-02	
871	4.272500e-08	1.154238e-01	-6.70803e-03	-2.56707e-02	
872	4.277500e-08	1.149563e-01	-6.40266e-03	-2.57620e-02	
873	4.282500e-08	1.143929e-01	-6.29619e-03	-2.54085e-02	
874	4.287500e-08	1.137076e-01	-6.35317e-03	-2.47199e-02	
875	4.292500e-08	1.129090e-01	-6.45697e-03	-2.39262e-02	
876	4.297500e-08	1.120405e-01	-6.44925e-03	-2.33082e-02	
877	4.302500e-08	1.111731e-01	-6.26221e-03	-2.29867e-02	
878	4.307500e-08	1.103825e-01	-5.92295e-03	-2.29220e-02	
879	4.312500e-08	1.096609e-01	-5.47985e-03	-2.30370e-02	
880	4.317500e-08	1.088818e-01	-4.96950e-03	-2.32733e-02	
881	4.322500e-08	1.079769e-01	-4.42410e-03	-2.35829e-02	
882	4.327500e-08	1.069639e-01	-3.88338e-03	-2.39165e-02	
883	4.332500e-08	1.059341e-01	-3.39478e-03	-2.42279e-02	
884	4.337500e-08	1.050244e-01	-3.00093e-03	-2.44863e-02	
885	4.342500e-08	1.042717e-01	-2.72199e-03	-2.46824e-02	
886	4.347500e-08	1.036149e-01	-2.54435e-03	-2.48254e-02	
887	4.352500e-08	1.029965e-01	-2.45225e-03	-2.48879e-02	
888	4.357500e-08	1.024085e-01	-2.45425e-03	-2.47850e-02	
889	4.362500e-08	1.018753e-01	-2.52245e-03	-2.45044e-02	
890	4.367500e-08	1.014212e-01	-2.59689e-03	-2.41204e-02	
891	4.372500e-08	1.010498e-01	-2.60405e-03	-2.37628e-02	
892	4.377500e-08	1.007387e-01	-2.47259e-03	-2.35746e-02	
893	4.382500e-08	1.004478e-01	-2.19891e-03	-2.35890e-02	
894	4.387500e-08	1.001341e-01	-1.84372e-03	-2.37269e-02	
895	4.392500e-08	9.972960e-02	-1.47569e-03	-2.38874e-02	
896	4.397500e-08	9.913657e-02	-1.13688e-03	-2.40070e-02	
897	4.402500e-08	9.833249e-02	-8.40058e-04	-2.40662e-02	
898	4.407500e-08	9.738453e-02	-5.78120e-04	-2.40772e-02	
899	4.412500e-08	9.642182e-02	-3.34658e-04	-2.40681e-02	
900	4.417500e-08	9.559797e-02	-9.33409e-05	-2.40719e-02	
901	4.422500e-08	9.498653e-02	1.550478e-04	-2.41184e-02	
902	4.427500e-08	9.456297e-02	4.098530e-04	-2.42276e-02	
903	4.432500e-08	9.426456e-02	6.459030e-04	-2.43763e-02	
904	4.437500e-08	9.403365e-02	8.116067e-04	-2.44821e-02	
905	4.442500e-08	9.382636e-02	8.829778e-04	-2.44843e-02	
906	4.447500e-08	9.361018e-02	8.775790e-04	-2.43733e-02	
907	4.452500e-08	9.336316e-02	8.442349e-04	-2.41902e-02	
908	4.457500e-08	9.307505e-02	8.465075e-04	-2.40157e-02	
909	4.462500e-08	9.274776e-02	9.156522e-04	-2.38979e-02	
910	4.467500e-08	9.239354e-02	1.042758e-03	-2.38344e-02	
911	4.472500e-08	9.200905e-02	1.207844e-03	-2.38092e-02	
912	4.477500e-08	9.155904e-02	1.399503e-03	-2.38172e-02	
913	4.482500e-08	9.103327e-02	1.614850e-03	-2.38626e-02	
914	4.487500e-08	9.046264e-02	1.852529e-03	-2.39473e-02	
915	4.492500e-08	8.990750e-02	2.107643e-03	-2.40653e-02	
916	4.497500e-08	8.943913e-02	2.370447e-03	-2.42013e-02	
917	4.502500e-08	8.908179e-02	2.627923e-03	-2.43352e-02	
918	4.507500e-08	8.880232e-02	2.866637e-03	-2.44478e-02	
919	4.512500e-08	8.855123e-02	3.065282e-03	-2.45118e-02	
920	4.517500e-08	8.829602e-02	3.191051e-03	-2.44850e-02	
921	4.522500e-08	8.802780e-02	3.230099e-03	-2.43563e-02	
922	4.527500e-08	8.775450e-02	3.199487e-03	-2.41579e-02	
923	4.532500e-08	8.749175e-02	3.142297e-03	-2.39519e-02	
924	4.537500e-08	8.725474e-02	3.115188e-03	-2.38113e-02	

Index   time            v(2)            v(7)            v(9)            
--------------------------------------------------------------------------------
925	4.542500e-08	8.705221e-02	3.154065e-03	-2.37715e-02	
926	4.547500e-08	8.688343e-02	3.260236e-03	-2.38176e-02	
927	4.552500e-08	8.672542e-02	3.414571e-03	-2.39121e-02	
928	4.557500e-08	8.652769e-02	3.593759e-03	-2.40208e-02	
929	4.562500e-08	8.625288e-02	3.777818e-03	-2.41197e-02	
930	4.567500e-08	8.589781e-02	3.952649e-03	-2.41948e-02	
931	4.572500e-08	8.549317e-02	4.111069e-03	-2.42407e-02	
932	4.577500e-08	8.509394e-02	4.252675e-03	-2.42607e-02	
933	4.582500e-08	8.474137e-02	4.382291e-03	-2.42641e-02	
934	4.587500e-08	8.444596e-02	4.507398e-03	-2.42640e-02	
935	4.592500e-08	8.420228e-02	4.629181e-03	-2.42626e-02	
936	4.597500e-08	8.400340e-02	4.735818e-03	-2.42421e-02	
937	4.602500e-08	8.384286e-02	4.817524e-03	-2.41899e-02	
938	4.607500e-08	8.371180e-02	4.874672e-03	-2.41122e-02	
939	4.612500e-08	8.359826e-02	4.917360e-03	-2.40322e-02	
940	4.617500e-08	8.348921e-02	4.962597e-03	-2.39816e-02	
941	4.622500e-08	8.337337e-02	5.019872e-03	-2.39742e-02	
942	4.627500e-08	8.324346e-02	5.086259e-03	-2.39967e-02	
943	4.632500e-08	8.308952e-02	5.155627e-03	-2.40266e-02	
944	4.637500e-08	8.289302e-02	5.226419e-03	-2.40497e-02	
945	4.642500e-08	8.264676e-02	5.301638e-03	-2.40644e-02	
946	4.647500e-08	8.236486e-02	5.385452e-03	-2.40768e-02	
947	4.652500e-08	8.207842e-02	5.480671e-03	-2.40952e-02	
948	4.657500e-08	8.182549e-02	5.587834e-03	-2.41256e-02	
949	4.662500e-08	8.162682e-02	5.705173e-03	-2.41695e-02	
950	4.667500e-08	8.147612e-02	5.828878e-03	-2.42239e-02	
951	4.672500e-08	8.135327e-02	5.950004e-03	-2.42757e-02	
952	4.677500e-08	8.123976e-02	6.052518e-03	-2.42999e-02	
953	4.682500e-08	8.112438e-02	6.124419e-03	-2.42773e-02	
954	4.687500e-08	8.100251e-02	6.165261e-03	-2.42078e-02	
955	4.692500e-08	8.087415e-02	6.186127e-03	-2.41107e-02	
956	4.697500e-08	8.074267e-02	6.205502e-03	-2.40187e-02	
957	4.702500e-08	8.061361e-02	6.237134e-03	-2.39580e-02	
958	4.707500e-08	8.049308e-02	6.283685e-03	-2.39359e-02	
959	4.712500e-08	8.038095e-02	6.341458e-03	-2.39469e-02	
960	4.717500e-08	8.026513e-02	6.406828e-03	-2.39819e-02	
961	4.722500e-08	8.013327e-02	6.478147e-03	-2.40315e-02	
962	4.727500e-08	7.998247e-02	6.554401e-03	-2.40869e-02	
963	4.732500e-08	7.982092e-02	6.633703e-03	-2.41400e-02	
964	4.737500e-08	7.966499e-02	6.713111e-03	-2.41839e-02	
965	4.742500e-08	7.952588e-02	6.789609e-03	-2.42150e-02	
966	4.747500e-08	7.940230e-02	6.861350e-03	-2.42328e-02	
967	4.752500e-08	7.928681e-02	6.926105e-03	-2.42367e-02	
968	4.757500e-08	7.917457e-02	6.979002e-03	-2.42208e-02	
969	4.762500e-08	7.906610e-02	7.017362e-03	-2.41822e-02	
970	4.767500e-08	7.896520e-02	7.044317e-03	-2.41266e-02	
971	4.772500e-08	7.887556e-02	7.068294e-03	-2.40680e-02	
972	4.777500e-08	7.879844e-02	7.100331e-03	-2.40246e-02	
973	4.782500e-08	7.873203e-02	7.146858e-03	-2.40075e-02	
974	4.787500e-08	7.867210e-02	7.205626e-03	-2.40143e-02	
975	4.792500e-08	7.861069e-02	7.268947e-03	-2.40347e-02	
976	4.797500e-08	7.853480e-02	7.329171e-03	-2.40583e-02	
977	4.802500e-08	7.843457e-02	7.381891e-03	-2.40790e-02	
978	4.807500e-08	7.831016e-02	7.426553e-03	-2.40946e-02	
979	4.812500e-08	7.817240e-02	7.465618e-03	-2.41061e-02	
980	4.817500e-08	7.803933e-02	7.503083e-03	-2.41156e-02	
981	4.822500e-08	7.792586e-02	7.542896e-03	-2.41261e-02	
982	4.827500e-08	7.783651e-02	7.587725e-03	-2.41398e-02	

Index   time            v(2)            v(7)            v(9)            
--------------------------------------------------------------------------------
983	4.832500e-08	7.776725e-02	7.637050e-03	-2.41558e-02	
984	4.837500e-08	7.771103e-02	7.685822e-03	-2.41672e-02	
985	4.842500e-08	7.766106e-02	7.728210e-03	-2.41660e-02	
986	4.847500e-08	7.761196e-02	7.761506e-03	-2.41494e-02	
987	4.852500e-08	7.755999e-02	7.787397e-03	-2.41211e-02	
988	4.857500e-08	7.750329e-02	7.811307e-03	-2.40905e-02	
989	4.862500e-08	7.744197e-02	7.838324e-03	-2.40661e-02	
990	4.867500e-08	7.737774e-02	7.870073e-03	-2.40507e-02	
991	4.872500e-08	7.731158e-02	7.905533e-03	-2.40430e-02	
992	4.877500e-08	7.724108e-02	7.943266e-03	-2.40413e-02	
993	4.882500e-08	7.716361e-02	7.982409e-03	-2.40453e-02	
994	4.887500e-08	7.708015e-02	8.022454e-03	-2.40555e-02	
995	4.892500e-08	7.699587e-02	8.062839e-03	-2.40716e-02	
996	4.897500e-08	7.691871e-02	8.102863e-03	-2.40924e-02	
997	4.902500e-08	7.685413e-02	8.141834e-03	-2.41155e-02	
998	4.907500e-08	7.680136e-02	8.179224e-03	-2.41376e-02	
999	4.912500e-08	7.675538e-02	8.213936e-03	-2.41547e-02	
1000	4.917500e-08	7.671103e-02	8.243376e-03	-2.41610e-02	
1001	4.922500e-08	7.666545e-02	8.265311e-03	-2.41523e-02	
1002	4.927500e-08	7.661818e-02	8.280026e-03	-2.41295e-02	
1003	4.932500e-08	7.657033e-02	8.290837e-03	-2.40988e-02	
1004	4.937500e-08	7.652363e-02	8.303202e-03	-2.40698e-02	
1005	4.942500e-08	7.647971e-02	8.321740e-03	-2.40509e-02	
1006	4.947500e-08	7.643959e-02	8.347801e-03	-2.40446e-02	
1007	4.952500e-08	7.640233e-02	8.379804e-03	-2.40487e-02	
1008	4.957500e-08	7.636380e-02	8.415024e-03	-2.40589e-02	
1009	4.962500e-08	7.631914e-02	8.450894e-03	-2.40713e-02	
1010	4.967500e-08	7.626612e-02	8.485444e-03	-2.40829e-02	
1011	4.972500e-08	7.620656e-02	8.517338e-03	-2.40921e-02	
1012	4.977500e-08	7.614587e-02	8.545896e-03	-2.40985e-02	
1013	4.982500e-08	7.608966e-02	8.571133e-03	-2.41028e-02	
1014	4.987500e-08	7.604064e-02	8.593740e-03	-2.41061e-02	
1015	4.992500e-08	7.599867e-02	8.614437e-03	-2.41092e-02	
1016	4.997500e-08	7.596259e-02	8.633010e-03	-2.41104e-02	
1017	5.000000e-08	7.594647e-02	8.640902e-03	-2.41089e-02	


