Circuit: 6.3inch 4 lossy lines cpl model -- r load 

Doing analysis at TEMP = 27.000000 and TNOM = 27.000000

Warning: vs1: no DC value, transient time 0 value used


No. of Data Rows : 1018
                   6.3inch 4 lossy lines cpl model -- r load 
                   Transient Analysis  Sat Jan 16 17:52:22  2010
--------------------------------------------------------------------------------
Index   time            v(2)            v(7)            v(9)            
--------------------------------------------------------------------------------
0	0.000000e+00	0.000000e+00	0.000000e+00	0.000000e+00	
1	2.000000e-12	0.000000e+00	0.000000e+00	0.000000e+00	
2	4.000000e-12	0.000000e+00	0.000000e+00	0.000000e+00	
3	8.000000e-12	0.000000e+00	0.000000e+00	0.000000e+00	
4	1.600000e-11	0.000000e+00	0.000000e+00	0.000000e+00	
5	3.200000e-11	0.000000e+00	0.000000e+00	0.000000e+00	
6	6.400000e-11	0.000000e+00	0.000000e+00	0.000000e+00	
7	1.140000e-10	0.000000e+00	0.000000e+00	0.000000e+00	
8	1.640000e-10	0.000000e+00	0.000000e+00	0.000000e+00	
9	2.140000e-10	0.000000e+00	0.000000e+00	0.000000e+00	
10	2.640000e-10	0.000000e+00	0.000000e+00	0.000000e+00	
11	3.140000e-10	0.000000e+00	0.000000e+00	0.000000e+00	
12	3.640000e-10	0.000000e+00	0.000000e+00	0.000000e+00	
13	4.140000e-10	0.000000e+00	0.000000e+00	0.000000e+00	
14	4.640000e-10	0.000000e+00	0.000000e+00	0.000000e+00	
15	5.140000e-10	0.000000e+00	0.000000e+00	0.000000e+00	
16	5.640000e-10	0.000000e+00	0.000000e+00	0.000000e+00	
17	6.140000e-10	0.000000e+00	0.000000e+00	0.000000e+00	
18	6.640000e-10	0.000000e+00	0.000000e+00	0.000000e+00	
19	7.140000e-10	0.000000e+00	0.000000e+00	0.000000e+00	
20	7.640000e-10	0.000000e+00	0.000000e+00	0.000000e+00	
21	8.140000e-10	0.000000e+00	0.000000e+00	0.000000e+00	
22	8.640000e-10	0.000000e+00	0.000000e+00	0.000000e+00	
23	9.140000e-10	0.000000e+00	0.000000e+00	0.000000e+00	
24	9.640000e-10	0.000000e+00	0.000000e+00	0.000000e+00	
25	1.014000e-09	0.000000e+00	0.000000e+00	0.000000e+00	
26	1.064000e-09	0.000000e+00	0.000000e+00	0.000000e+00	
27	1.114000e-09	0.000000e+00	0.000000e+00	0.000000e+00	
28	1.164000e-09	0.000000e+00	0.000000e+00	0.000000e+00	
29	1.214000e-09	0.000000e+00	0.000000e+00	0.000000e+00	
30	1.264000e-09	0.000000e+00	0.000000e+00	0.000000e+00	
31	1.314000e-09	0.000000e+00	0.000000e+00	0.000000e+00	
32	1.364000e-09	0.000000e+00	0.000000e+00	0.000000e+00	
33	1.414000e-09	0.000000e+00	0.000000e+00	0.000000e+00	
34	1.464000e-09	0.000000e+00	0.000000e+00	0.000000e+00	
35	1.514000e-09	0.000000e+00	0.000000e+00	0.000000e+00	
36	1.564000e-09	0.000000e+00	0.000000e+00	0.000000e+00	
37	1.614000e-09	0.000000e+00	0.000000e+00	0.000000e+00	
38	1.664000e-09	0.000000e+00	0.000000e+00	0.000000e+00	
39	1.714000e-09	0.000000e+00	0.000000e+00	0.000000e+00	
40	1.764000e-09	0.000000e+00	0.000000e+00	0.000000e+00	
41	1.814000e-09	0.000000e+00	0.000000e+00	0.000000e+00	
42	1.864000e-09	0.000000e+00	0.000000e+00	0.000000e+00	
43	1.914000e-09	0.000000e+00	0.000000e+00	0.000000e+00	
44	1.964000e-09	0.000000e+00	0.000000e+00	0.000000e+00	
45	2.014000e-09	0.000000e+00	0.000000e+00	0.000000e+00	
46	2.064000e-09	0.000000e+00	0.000000e+00	0.000000e+00	
47	2.114000e-09	0.000000e+00	0.000000e+00	0.000000e+00	
48	2.164000e-09	0.000000e+00	0.000000e+00	0.000000e+00	
49	2.214000e-09	0.000000e+00	0.000000e+00	0.000000e+00	
50	2.264000e-09	0.000000e+00	0.000000e+00	0.000000e+00	
51	2.314000e-09	0.000000e+00	0.000000e+00	0.000000e+00	
52	2.364000e-09	0.000000e+00	0.000000e+00	0.000000e+00	
53	2.414000e-09	0.000000e+00	0.000000e+00	0.000000e+00	
54	2.464000e-09	0.000000e+00	0.000000e+00	0.000000e+00	

Index   time            v(2)            v(7)            v(9)            
--------------------------------------------------------------------------------
55	2.514000e-09	0.000000e+00	0.000000e+00	0.000000e+00	
56	2.564000e-09	0.000000e+00	0.000000e+00	0.000000e+00	
57	2.614000e-09	0.000000e+00	0.000000e+00	0.000000e+00	
58	2.664000e-09	0.000000e+00	0.000000e+00	0.000000e+00	
59	2.714000e-09	0.000000e+00	0.000000e+00	0.000000e+00	
60	2.764000e-09	0.000000e+00	0.000000e+00	0.000000e+00	
61	2.814000e-09	0.000000e+00	0.000000e+00	0.000000e+00	
62	2.864000e-09	0.000000e+00	0.000000e+00	0.000000e+00	
63	2.914000e-09	0.000000e+00	0.000000e+00	0.000000e+00	
64	2.964000e-09	0.000000e+00	0.000000e+00	0.000000e+00	
65	3.014000e-09	0.000000e+00	0.000000e+00	0.000000e+00	
66	3.064000e-09	0.000000e+00	0.000000e+00	0.000000e+00	
67	3.114000e-09	0.000000e+00	0.000000e+00	0.000000e+00	
68	3.164000e-09	0.000000e+00	0.000000e+00	0.000000e+00	
69	3.214000e-09	0.000000e+00	0.000000e+00	0.000000e+00	
70	3.264000e-09	0.000000e+00	0.000000e+00	0.000000e+00	
71	3.314000e-09	0.000000e+00	0.000000e+00	0.000000e+00	
72	3.364000e-09	0.000000e+00	0.000000e+00	0.000000e+00	
73	3.414000e-09	0.000000e+00	0.000000e+00	0.000000e+00	
74	3.464000e-09	0.000000e+00	0.000000e+00	0.000000e+00	
75	3.514000e-09	0.000000e+00	0.000000e+00	0.000000e+00	
76	3.564000e-09	0.000000e+00	0.000000e+00	0.000000e+00	
77	3.614000e-09	0.000000e+00	0.000000e+00	0.000000e+00	
78	3.664000e-09	0.000000e+00	0.000000e+00	0.000000e+00	
79	3.714000e-09	0.000000e+00	0.000000e+00	0.000000e+00	
80	3.764000e-09	0.000000e+00	0.000000e+00	0.000000e+00	
81	3.814000e-09	0.000000e+00	0.000000e+00	0.000000e+00	
82	3.864000e-09	0.000000e+00	0.000000e+00	0.000000e+00	
83	3.914000e-09	0.000000e+00	0.000000e+00	0.000000e+00	
84	3.964000e-09	0.000000e+00	0.000000e+00	0.000000e+00	
85	4.014000e-09	0.000000e+00	0.000000e+00	0.000000e+00	
86	4.064000e-09	0.000000e+00	0.000000e+00	0.000000e+00	
87	4.114000e-09	0.000000e+00	0.000000e+00	0.000000e+00	
88	4.164000e-09	0.000000e+00	0.000000e+00	0.000000e+00	
89	4.214000e-09	0.000000e+00	0.000000e+00	0.000000e+00	
90	4.264000e-09	0.000000e+00	0.000000e+00	0.000000e+00	
91	4.314000e-09	0.000000e+00	0.000000e+00	0.000000e+00	
92	4.364000e-09	0.000000e+00	0.000000e+00	0.000000e+00	
93	4.414000e-09	0.000000e+00	0.000000e+00	0.000000e+00	
94	4.464000e-09	0.000000e+00	0.000000e+00	0.000000e+00	
95	4.514000e-09	0.000000e+00	0.000000e+00	0.000000e+00	
96	4.564000e-09	0.000000e+00	0.000000e+00	0.000000e+00	
97	4.614000e-09	0.000000e+00	0.000000e+00	0.000000e+00	
98	4.664000e-09	0.000000e+00	0.000000e+00	0.000000e+00	
99	4.714000e-09	0.000000e+00	0.000000e+00	0.000000e+00	
100	4.764000e-09	0.000000e+00	0.000000e+00	0.000000e+00	
101	4.814000e-09	0.000000e+00	0.000000e+00	0.000000e+00	
102	4.864000e-09	0.000000e+00	0.000000e+00	0.000000e+00	
103	4.914000e-09	0.000000e+00	0.000000e+00	0.000000e+00	
104	4.964000e-09	0.000000e+00	0.000000e+00	0.000000e+00	
105	5.014000e-09	0.000000e+00	0.000000e+00	0.000000e+00	
106	5.064000e-09	0.000000e+00	0.000000e+00	0.000000e+00	
107	5.114000e-09	0.000000e+00	0.000000e+00	0.000000e+00	
108	5.164000e-09	0.000000e+00	0.000000e+00	0.000000e+00	
109	5.214000e-09	0.000000e+00	0.000000e+00	0.000000e+00	
110	5.264000e-09	0.000000e+00	0.000000e+00	0.000000e+00	
111	5.314000e-09	0.000000e+00	0.000000e+00	0.000000e+00	
112	5.364000e-09	0.000000e+00	0.000000e+00	0.000000e+00	

Index   time            v(2)            v(7)            v(9)            
--------------------------------------------------------------------------------
113	5.414000e-09	0.000000e+00	0.000000e+00	0.000000e+00	
114	5.464000e-09	0.000000e+00	0.000000e+00	0.000000e+00	
115	5.514000e-09	0.000000e+00	0.000000e+00	0.000000e+00	
116	5.564000e-09	0.000000e+00	0.000000e+00	0.000000e+00	
117	5.614000e-09	0.000000e+00	0.000000e+00	0.000000e+00	
118	5.664000e-09	0.000000e+00	0.000000e+00	0.000000e+00	
119	5.714000e-09	0.000000e+00	0.000000e+00	0.000000e+00	
120	5.764000e-09	0.000000e+00	0.000000e+00	0.000000e+00	
121	5.814000e-09	0.000000e+00	0.000000e+00	0.000000e+00	
122	5.864000e-09	0.000000e+00	0.000000e+00	0.000000e+00	
123	5.914000e-09	0.000000e+00	0.000000e+00	0.000000e+00	
124	5.964000e-09	0.000000e+00	0.000000e+00	0.000000e+00	
125	6.014000e-09	0.000000e+00	0.000000e+00	0.000000e+00	
126	6.064000e-09	0.000000e+00	0.000000e+00	0.000000e+00	
127	6.114000e-09	0.000000e+00	0.000000e+00	0.000000e+00	
128	6.164000e-09	0.000000e+00	0.000000e+00	0.000000e+00	
129	6.214000e-09	0.000000e+00	0.000000e+00	0.000000e+00	
130	6.264000e-09	0.000000e+00	0.000000e+00	0.000000e+00	
131	6.314000e-09	0.000000e+00	0.000000e+00	0.000000e+00	
132	6.364000e-09	0.000000e+00	0.000000e+00	0.000000e+00	
133	6.414000e-09	0.000000e+00	0.000000e+00	0.000000e+00	
134	6.464000e-09	0.000000e+00	0.000000e+00	0.000000e+00	
135	6.514000e-09	0.000000e+00	0.000000e+00	0.000000e+00	
136	6.564000e-09	0.000000e+00	0.000000e+00	0.000000e+00	
137	6.614000e-09	0.000000e+00	0.000000e+00	0.000000e+00	
138	6.664000e-09	0.000000e+00	0.000000e+00	0.000000e+00	
139	6.714000e-09	0.000000e+00	0.000000e+00	0.000000e+00	
140	6.764000e-09	0.000000e+00	0.000000e+00	0.000000e+00	
141	6.814000e-09	0.000000e+00	0.000000e+00	0.000000e+00	
142	6.864000e-09	0.000000e+00	0.000000e+00	0.000000e+00	
143	6.914000e-09	0.000000e+00	0.000000e+00	0.000000e+00	
144	6.964000e-09	0.000000e+00	0.000000e+00	0.000000e+00	
145	7.014000e-09	0.000000e+00	0.000000e+00	0.000000e+00	
146	7.064000e-09	0.000000e+00	0.000000e+00	0.000000e+00	
147	7.114000e-09	0.000000e+00	0.000000e+00	0.000000e+00	
148	7.164000e-09	0.000000e+00	0.000000e+00	0.000000e+00	
149	7.214000e-09	0.000000e+00	0.000000e+00	0.000000e+00	
150	7.264000e-09	0.000000e+00	0.000000e+00	0.000000e+00	
151	7.314000e-09	0.000000e+00	0.000000e+00	0.000000e+00	
152	7.364000e-09	0.000000e+00	0.000000e+00	0.000000e+00	
153	7.414000e-09	0.000000e+00	0.000000e+00	0.000000e+00	
154	7.464000e-09	0.000000e+00	0.000000e+00	0.000000e+00	
155	7.514000e-09	0.000000e+00	0.000000e+00	0.000000e+00	
156	7.564000e-09	0.000000e+00	0.000000e+00	0.000000e+00	
157	7.614000e-09	0.000000e+00	0.000000e+00	0.000000e+00	
158	7.664000e-09	0.000000e+00	0.000000e+00	0.000000e+00	
159	7.714000e-09	0.000000e+00	0.000000e+00	0.000000e+00	
160	7.764000e-09	0.000000e+00	0.000000e+00	0.000000e+00	
161	7.814000e-09	0.000000e+00	0.000000e+00	0.000000e+00	
162	7.864000e-09	0.000000e+00	0.000000e+00	0.000000e+00	
163	7.914000e-09	0.000000e+00	0.000000e+00	0.000000e+00	
164	7.964000e-09	0.000000e+00	0.000000e+00	0.000000e+00	
165	8.014000e-09	0.000000e+00	0.000000e+00	0.000000e+00	
166	8.064000e-09	0.000000e+00	0.000000e+00	0.000000e+00	
167	8.114000e-09	0.000000e+00	0.000000e+00	0.000000e+00	
168	8.164000e-09	0.000000e+00	0.000000e+00	0.000000e+00	
169	8.214000e-09	0.000000e+00	0.000000e+00	0.000000e+00	
170	8.264000e-09	0.000000e+00	0.000000e+00	0.000000e+00	

Index   time            v(2)            v(7)            v(9)            
--------------------------------------------------------------------------------
171	8.314000e-09	0.000000e+00	0.000000e+00	0.000000e+00	
172	8.364000e-09	0.000000e+00	0.000000e+00	0.000000e+00	
173	8.414000e-09	0.000000e+00	0.000000e+00	0.000000e+00	
174	8.464000e-09	0.000000e+00	0.000000e+00	0.000000e+00	
175	8.514000e-09	0.000000e+00	0.000000e+00	0.000000e+00	
176	8.564000e-09	0.000000e+00	0.000000e+00	0.000000e+00	
177	8.614000e-09	0.000000e+00	0.000000e+00	0.000000e+00	
178	8.664000e-09	0.000000e+00	0.000000e+00	0.000000e+00	
179	8.714000e-09	0.000000e+00	0.000000e+00	0.000000e+00	
180	8.764000e-09	0.000000e+00	0.000000e+00	0.000000e+00	
181	8.814000e-09	0.000000e+00	0.000000e+00	0.000000e+00	
182	8.864000e-09	0.000000e+00	0.000000e+00	0.000000e+00	
183	8.914000e-09	0.000000e+00	0.000000e+00	0.000000e+00	
184	8.964000e-09	0.000000e+00	0.000000e+00	0.000000e+00	
185	9.014000e-09	0.000000e+00	0.000000e+00	0.000000e+00	
186	9.064000e-09	0.000000e+00	0.000000e+00	0.000000e+00	
187	9.114000e-09	0.000000e+00	0.000000e+00	0.000000e+00	
188	9.164000e-09	0.000000e+00	0.000000e+00	0.000000e+00	
189	9.214000e-09	0.000000e+00	0.000000e+00	0.000000e+00	
190	9.264000e-09	0.000000e+00	0.000000e+00	0.000000e+00	
191	9.314000e-09	0.000000e+00	0.000000e+00	0.000000e+00	
192	9.364000e-09	0.000000e+00	0.000000e+00	0.000000e+00	
193	9.414000e-09	0.000000e+00	0.000000e+00	0.000000e+00	
194	9.464000e-09	0.000000e+00	0.000000e+00	0.000000e+00	
195	9.514000e-09	0.000000e+00	0.000000e+00	0.000000e+00	
196	9.564000e-09	0.000000e+00	0.000000e+00	0.000000e+00	
197	9.614000e-09	0.000000e+00	0.000000e+00	0.000000e+00	
198	9.664000e-09	0.000000e+00	0.000000e+00	0.000000e+00	
199	9.714000e-09	0.000000e+00	0.000000e+00	0.000000e+00	
200	9.764000e-09	0.000000e+00	0.000000e+00	0.000000e+00	
201	9.814000e-09	0.000000e+00	0.000000e+00	0.000000e+00	
202	9.864000e-09	0.000000e+00	0.000000e+00	0.000000e+00	
203	9.914000e-09	0.000000e+00	0.000000e+00	0.000000e+00	
204	9.964000e-09	0.000000e+00	0.000000e+00	0.000000e+00	
205	1.001400e-08	0.000000e+00	0.000000e+00	0.000000e+00	
206	1.006400e-08	0.000000e+00	0.000000e+00	0.000000e+00	
207	1.011400e-08	0.000000e+00	0.000000e+00	0.000000e+00	
208	1.016400e-08	0.000000e+00	0.000000e+00	0.000000e+00	
209	1.021400e-08	0.000000e+00	0.000000e+00	0.000000e+00	
210	1.026400e-08	0.000000e+00	0.000000e+00	0.000000e+00	
211	1.031400e-08	0.000000e+00	0.000000e+00	0.000000e+00	
212	1.036400e-08	0.000000e+00	0.000000e+00	0.000000e+00	
213	1.041400e-08	0.000000e+00	0.000000e+00	0.000000e+00	
214	1.046400e-08	0.000000e+00	0.000000e+00	0.000000e+00	
215	1.051400e-08	0.000000e+00	0.000000e+00	0.000000e+00	
216	1.056400e-08	0.000000e+00	0.000000e+00	0.000000e+00	
217	1.061400e-08	0.000000e+00	0.000000e+00	0.000000e+00	
218	1.066400e-08	0.000000e+00	0.000000e+00	0.000000e+00	
219	1.071400e-08	0.000000e+00	0.000000e+00	0.000000e+00	
220	1.076400e-08	0.000000e+00	0.000000e+00	0.000000e+00	
221	1.081400e-08	0.000000e+00	0.000000e+00	0.000000e+00	
222	1.086400e-08	0.000000e+00	0.000000e+00	0.000000e+00	
223	1.091400e-08	0.000000e+00	0.000000e+00	0.000000e+00	
224	1.096400e-08	0.000000e+00	0.000000e+00	0.000000e+00	
225	1.101400e-08	0.000000e+00	0.000000e+00	0.000000e+00	
226	1.106400e-08	0.000000e+00	0.000000e+00	0.000000e+00	
227	1.111400e-08	0.000000e+00	0.000000e+00	0.000000e+00	
228	1.116400e-08	0.000000e+00	0.000000e+00	0.000000e+00	

Index   time            v(2)            v(7)            v(9)            
--------------------------------------------------------------------------------
229	1.121400e-08	0.000000e+00	0.000000e+00	0.000000e+00	
230	1.126400e-08	0.000000e+00	0.000000e+00	0.000000e+00	
231	1.131400e-08	0.000000e+00	0.000000e+00	0.000000e+00	
232	1.136400e-08	0.000000e+00	0.000000e+00	0.000000e+00	
233	1.141400e-08	0.000000e+00	0.000000e+00	0.000000e+00	
234	1.146400e-08	0.000000e+00	0.000000e+00	0.000000e+00	
235	1.151400e-08	0.000000e+00	0.000000e+00	0.000000e+00	
236	1.156400e-08	0.000000e+00	0.000000e+00	0.000000e+00	
237	1.161400e-08	0.000000e+00	0.000000e+00	0.000000e+00	
238	1.166400e-08	0.000000e+00	0.000000e+00	0.000000e+00	
239	1.171400e-08	0.000000e+00	0.000000e+00	0.000000e+00	
240	1.176400e-08	0.000000e+00	0.000000e+00	0.000000e+00	
241	1.181400e-08	0.000000e+00	0.000000e+00	0.000000e+00	
242	1.186400e-08	0.000000e+00	0.000000e+00	0.000000e+00	
243	1.191400e-08	0.000000e+00	0.000000e+00	0.000000e+00	
244	1.196400e-08	0.000000e+00	0.000000e+00	0.000000e+00	
245	1.201400e-08	0.000000e+00	0.000000e+00	0.000000e+00	
246	1.206400e-08	0.000000e+00	0.000000e+00	0.000000e+00	
247	1.211400e-08	0.000000e+00	0.000000e+00	0.000000e+00	
248	1.216400e-08	0.000000e+00	0.000000e+00	0.000000e+00	
249	1.221400e-08	0.000000e+00	0.000000e+00	0.000000e+00	
250	1.226400e-08	0.000000e+00	0.000000e+00	0.000000e+00	
251	1.231400e-08	0.000000e+00	0.000000e+00	0.000000e+00	
252	1.236400e-08	0.000000e+00	0.000000e+00	0.000000e+00	
253	1.241400e-08	0.000000e+00	0.000000e+00	0.000000e+00	
254	1.246400e-08	0.000000e+00	0.000000e+00	0.000000e+00	
255	1.251400e-08	0.000000e+00	0.000000e+00	0.000000e+00	
256	1.256400e-08	0.000000e+00	0.000000e+00	0.000000e+00	
257	1.261400e-08	0.000000e+00	0.000000e+00	0.000000e+00	
258	1.266400e-08	0.000000e+00	0.000000e+00	0.000000e+00	
259	1.271400e-08	0.000000e+00	0.000000e+00	0.000000e+00	
260	1.276400e-08	0.000000e+00	0.000000e+00	0.000000e+00	
261	1.281400e-08	0.000000e+00	0.000000e+00	0.000000e+00	
262	1.286400e-08	0.000000e+00	0.000000e+00	0.000000e+00	
263	1.291400e-08	0.000000e+00	0.000000e+00	0.000000e+00	
264	1.296400e-08	0.000000e+00	0.000000e+00	0.000000e+00	
265	1.301400e-08	0.000000e+00	0.000000e+00	0.000000e+00	
266	1.306400e-08	0.000000e+00	0.000000e+00	0.000000e+00	
267	1.311400e-08	0.000000e+00	0.000000e+00	0.000000e+00	
268	1.316400e-08	0.000000e+00	0.000000e+00	0.000000e+00	
269	1.321400e-08	0.000000e+00	0.000000e+00	0.000000e+00	
270	1.326400e-08	0.000000e+00	0.000000e+00	0.000000e+00	
271	1.331400e-08	0.000000e+00	0.000000e+00	0.000000e+00	
272	1.336400e-08	0.000000e+00	0.000000e+00	0.000000e+00	
273	1.341400e-08	0.000000e+00	0.000000e+00	0.000000e+00	
274	1.346400e-08	0.000000e+00	0.000000e+00	0.000000e+00	
275	1.351400e-08	0.000000e+00	0.000000e+00	0.000000e+00	
276	1.356400e-08	0.000000e+00	0.000000e+00	0.000000e+00	
277	1.361400e-08	0.000000e+00	0.000000e+00	0.000000e+00	
278	1.366400e-08	0.000000e+00	0.000000e+00	0.000000e+00	
279	1.371400e-08	0.000000e+00	0.000000e+00	0.000000e+00	
280	1.376400e-08	0.000000e+00	0.000000e+00	0.000000e+00	
281	1.381400e-08	0.000000e+00	0.000000e+00	0.000000e+00	
282	1.386400e-08	0.000000e+00	0.000000e+00	0.000000e+00	
283	1.391400e-08	0.000000e+00	0.000000e+00	0.000000e+00	
284	1.396400e-08	0.000000e+00	0.000000e+00	0.000000e+00	
285	1.401400e-08	0.000000e+00	0.000000e+00	0.000000e+00	
286	1.406400e-08	0.000000e+00	0.000000e+00	0.000000e+00	

Index   time            v(2)            v(7)            v(9)            
--------------------------------------------------------------------------------
287	1.411400e-08	0.000000e+00	0.000000e+00	0.000000e+00	
288	1.416400e-08	0.000000e+00	0.000000e+00	0.000000e+00	
289	1.421400e-08	0.000000e+00	0.000000e+00	0.000000e+00	
290	1.426400e-08	0.000000e+00	0.000000e+00	0.000000e+00	
291	1.431400e-08	0.000000e+00	0.000000e+00	0.000000e+00	
292	1.436400e-08	0.000000e+00	0.000000e+00	0.000000e+00	
293	1.441400e-08	0.000000e+00	0.000000e+00	0.000000e+00	
294	1.446400e-08	0.000000e+00	0.000000e+00	0.000000e+00	
295	1.451400e-08	0.000000e+00	0.000000e+00	0.000000e+00	
296	1.456400e-08	0.000000e+00	0.000000e+00	0.000000e+00	
297	1.461400e-08	0.000000e+00	0.000000e+00	0.000000e+00	
298	1.466400e-08	0.000000e+00	0.000000e+00	0.000000e+00	
299	1.471400e-08	0.000000e+00	0.000000e+00	0.000000e+00	
300	1.476400e-08	0.000000e+00	0.000000e+00	0.000000e+00	
301	1.481400e-08	0.000000e+00	0.000000e+00	0.000000e+00	
302	1.486400e-08	0.000000e+00	0.000000e+00	0.000000e+00	
303	1.491400e-08	0.000000e+00	0.000000e+00	0.000000e+00	
304	1.496400e-08	0.000000e+00	0.000000e+00	0.000000e+00	
305	1.501400e-08	0.000000e+00	0.000000e+00	0.000000e+00	
306	1.506400e-08	0.000000e+00	0.000000e+00	0.000000e+00	
307	1.511400e-08	0.000000e+00	0.000000e+00	0.000000e+00	
308	1.516400e-08	0.000000e+00	0.000000e+00	0.000000e+00	
309	1.521400e-08	0.000000e+00	0.000000e+00	0.000000e+00	
310	1.526400e-08	0.000000e+00	0.000000e+00	0.000000e+00	
311	1.531400e-08	0.000000e+00	0.000000e+00	0.000000e+00	
312	1.536400e-08	0.000000e+00	0.000000e+00	0.000000e+00	
313	1.541400e-08	0.000000e+00	0.000000e+00	0.000000e+00	
314	1.546400e-08	0.000000e+00	0.000000e+00	0.000000e+00	
315	1.551400e-08	0.000000e+00	0.000000e+00	0.000000e+00	
316	1.556400e-08	0.000000e+00	0.000000e+00	0.000000e+00	
317	1.561400e-08	0.000000e+00	0.000000e+00	0.000000e+00	
318	1.566400e-08	0.000000e+00	0.000000e+00	0.000000e+00	
319	1.571400e-08	0.000000e+00	0.000000e+00	0.000000e+00	
320	1.576400e-08	0.000000e+00	0.000000e+00	0.000000e+00	
321	1.581400e-08	0.000000e+00	0.000000e+00	0.000000e+00	
322	1.586400e-08	0.000000e+00	0.000000e+00	0.000000e+00	
323	1.590000e-08	0.000000e+00	0.000000e+00	0.000000e+00	
324	1.590500e-08	1.610643e-02	0.000000e+00	0.000000e+00	
325	1.591500e-08	5.591464e-02	0.000000e+00	0.000000e+00	
326	1.593500e-08	1.204085e-01	0.000000e+00	0.000000e+00	
327	1.597500e-08	2.395031e-01	-2.76036e-03	-1.70599e-03	
328	1.602500e-08	4.018330e-01	-1.69811e-02	-1.04958e-02	
329	1.607500e-08	5.789948e-01	-3.25443e-02	-2.02304e-02	
330	1.610000e-08	6.639681e-01	-4.17321e-02	-2.59366e-02	
331	1.610500e-08	6.547115e-01	-4.36839e-02	-2.70106e-02	
332	1.611500e-08	6.566876e-01	-4.86910e-02	-3.00583e-02	
333	1.613500e-08	6.604582e-01	-5.86484e-02	-3.62343e-02	
334	1.617500e-08	6.698495e-01	-7.74640e-02	-4.79030e-02	
335	1.622500e-08	6.844447e-01	-1.41206e-01	1.789422e-02	
336	1.627500e-08	6.957245e-01	-2.22634e-01	1.013899e-01	
337	1.632500e-08	7.079473e-01	-2.62334e-01	1.228789e-01	
338	1.637500e-08	7.200002e-01	-2.24183e-01	8.811297e-02	
339	1.642500e-08	7.314385e-01	-5.95076e-02	2.481734e-02	
340	1.647500e-08	7.613273e-01	1.368279e-01	-7.52942e-02	
341	1.652500e-08	8.453092e-01	2.773426e-01	-9.65504e-02	
342	1.657500e-08	9.433234e-01	3.350071e-01	-6.09638e-02	
343	1.662500e-08	1.043384e+00	3.172132e-01	-7.19163e-02	
344	1.667500e-08	1.127175e+00	2.997848e-01	-8.27464e-02	

Index   time            v(2)            v(7)            v(9)            
--------------------------------------------------------------------------------
345	1.672500e-08	1.207156e+00	2.803354e-01	-8.95400e-02	
346	1.677500e-08	1.338024e+00	2.466901e-01	-7.25812e-02	
347	1.682500e-08	1.478888e+00	1.891278e-01	-1.61309e-02	
348	1.687500e-08	1.670146e+00	1.259162e-01	5.029611e-02	
349	1.692500e-08	1.806794e+00	6.412299e-02	1.151589e-01	
350	1.697500e-08	1.876835e+00	1.672715e-02	1.574219e-01	
351	1.702500e-08	1.936271e+00	-5.22843e-03	1.592224e-01	
352	1.707500e-08	1.986523e+00	-2.05778e-02	1.509182e-01	
353	1.712500e-08	2.057081e+00	-1.02635e-02	1.017174e-01	
354	1.717500e-08	2.133701e+00	3.299460e-02	-8.73788e-05	
355	1.722500e-08	2.203933e+00	7.792679e-02	-1.04011e-01	
356	1.727500e-08	2.249980e+00	1.415215e-01	-2.11000e-01	
357	1.732500e-08	2.266151e+00	2.046424e-01	-2.36620e-01	
358	1.737500e-08	2.275101e+00	2.406524e-01	-1.74763e-01	
359	1.742500e-08	2.283318e+00	2.622016e-01	-8.54526e-02	
360	1.747500e-08	2.291425e+00	2.681600e-01	-1.64526e-03	
361	1.752500e-08	2.331740e+00	2.442623e-01	5.088581e-02	
362	1.757500e-08	2.419270e+00	2.179205e-01	7.105088e-02	
363	1.762500e-08	2.522950e+00	2.027691e-01	6.890542e-02	
364	1.767500e-08	2.656052e+00	1.908591e-01	6.198522e-02	
365	1.772500e-08	2.769989e+00	1.793528e-01	5.492896e-02	
366	1.777500e-08	2.854552e+00	1.680044e-01	4.813535e-02	
367	1.782500e-08	2.931826e+00	1.561380e-01	4.265925e-02	
368	1.787500e-08	2.991559e+00	1.414265e-01	4.227719e-02	
369	1.792500e-08	3.030539e+00	1.345084e-01	2.978874e-02	
370	1.797500e-08	3.050519e+00	1.394414e-01	-1.40370e-03	
371	1.802500e-08	3.059880e+00	1.421625e-01	-2.85422e-02	
372	1.807500e-08	3.066936e+00	1.515317e-01	-6.59352e-02	
373	1.812500e-08	3.075439e+00	1.506938e-01	-8.63641e-02	
374	1.817500e-08	3.089775e+00	1.425966e-01	-8.46236e-02	
375	1.822500e-08	3.115477e+00	1.525235e-01	-7.60632e-02	
376	1.827500e-08	3.153809e+00	1.784995e-01	-5.97645e-02	
377	1.832500e-08	3.216954e+00	2.101894e-01	-3.99916e-02	
378	1.837500e-08	3.304473e+00	2.372286e-01	-2.22160e-02	
379	1.842500e-08	3.386646e+00	2.465541e-01	-1.19303e-02	
380	1.847500e-08	3.461973e+00	2.381954e-01	-3.82543e-03	
381	1.852500e-08	3.507382e+00	2.184357e-01	1.155863e-02	
382	1.857500e-08	3.521677e+00	1.919784e-01	3.616664e-02	
383	1.862500e-08	3.529865e+00	1.637964e-01	6.382505e-02	
384	1.867500e-08	3.544693e+00	1.389692e-01	8.644406e-02	
385	1.872500e-08	3.569950e+00	1.296534e-01	8.431721e-02	
386	1.877500e-08	3.605379e+00	1.409643e-01	4.914083e-02	
387	1.882500e-08	3.648617e+00	1.594929e-01	2.602226e-03	
388	1.887500e-08	3.692104e+00	1.820448e-01	-5.01351e-02	
389	1.892500e-08	3.729167e+00	1.944112e-01	-8.60871e-02	
390	1.897500e-08	3.756947e+00	1.916245e-01	-9.72021e-02	
391	1.902500e-08	3.774521e+00	1.823144e-01	-9.74434e-02	
392	1.907500e-08	3.783642e+00	1.702937e-01	-8.92208e-02	
393	1.912500e-08	3.800222e+00	1.606136e-01	-6.90236e-02	
394	1.917500e-08	3.834705e+00	1.570063e-01	-3.82332e-02	
395	1.922500e-08	3.875373e+00	1.594844e-01	-4.54224e-03	
396	1.927500e-08	3.922039e+00	1.655237e-01	2.337770e-02	
397	1.932500e-08	3.959571e+00	1.696213e-01	3.925225e-02	
398	1.937500e-08	3.983550e+00	1.690172e-01	4.348809e-02	
399	1.942500e-08	4.006645e+00	1.649684e-01	4.179997e-02	
400	1.947500e-08	4.031660e+00	1.594509e-01	3.875898e-02	
401	1.952500e-08	4.055479e+00	1.586906e-01	2.749385e-02	
402	1.957500e-08	4.076528e+00	1.659395e-01	3.437185e-03	

Index   time            v(2)            v(7)            v(9)            
--------------------------------------------------------------------------------
403	1.962500e-08	4.095091e+00	1.742923e-01	-2.21649e-02	
404	1.967500e-08	4.111892e+00	1.818124e-01	-4.61762e-02	
405	1.972500e-08	4.127230e+00	1.806506e-01	-5.58979e-02	
406	1.977500e-08	4.139712e+00	1.690510e-01	-4.84892e-02	
407	1.982500e-08	4.148822e+00	1.551392e-01	-3.71054e-02	
408	1.987500e-08	4.156930e+00	1.437191e-01	-2.95297e-02	
409	1.992500e-08	4.174218e+00	1.356738e-01	-2.71985e-02	
410	1.997500e-08	4.207682e+00	1.305868e-01	-2.80270e-02	
411	2.002500e-08	4.249523e+00	1.293328e-01	-2.82646e-02	
412	2.007500e-08	4.295153e+00	1.329444e-01	-2.53339e-02	
413	2.012500e-08	4.330777e+00	1.401496e-01	-1.87872e-02	
414	2.017500e-08	4.349170e+00	1.474670e-01	-9.23257e-03	
415	2.022500e-08	4.357401e+00	1.503227e-01	2.198881e-03	
416	2.027500e-08	4.361569e+00	1.462368e-01	1.453920e-02	
417	2.032500e-08	4.364663e+00	1.399639e-01	2.176376e-02	
418	2.037500e-08	4.367990e+00	1.377114e-01	1.822258e-02	
419	2.042500e-08	4.372645e+00	1.392489e-01	7.293173e-03	
420	2.047500e-08	4.380640e+00	1.448399e-01	-1.03235e-02	
421	2.052500e-08	4.393862e+00	1.493331e-01	-2.60388e-02	
422	2.057500e-08	4.412250e+00	1.490115e-01	-3.38043e-02	
423	2.062500e-08	4.433234e+00	1.460459e-01	-3.71306e-02	
424	2.067500e-08	4.452680e+00	1.421068e-01	-3.87233e-02	
425	2.072500e-08	4.471401e+00	1.373667e-01	-3.88636e-02	
426	2.077500e-08	4.492299e+00	1.313925e-01	-3.68510e-02	
427	2.082500e-08	4.512997e+00	1.238200e-01	-3.20964e-02	
428	2.087500e-08	4.534036e+00	1.150761e-01	-2.47575e-02	
429	2.092500e-08	4.550535e+00	1.070365e-01	-1.56332e-02	
430	2.097500e-08	4.559456e+00	1.021414e-01	-5.97642e-03	
431	2.102500e-08	4.565257e+00	1.015120e-01	2.801046e-03	
432	2.107500e-08	4.571784e+00	1.042227e-01	9.630636e-03	
433	2.112500e-08	4.580393e+00	1.097383e-01	1.083636e-02	
434	2.117500e-08	4.590765e+00	1.174531e-01	3.597423e-03	
435	2.122500e-08	4.601531e+00	1.247640e-01	-8.50431e-03	
436	2.127500e-08	4.611029e+00	1.312329e-01	-2.28997e-02	
437	2.132500e-08	4.618239e+00	1.343369e-01	-3.34255e-02	
438	2.137500e-08	4.623497e+00	1.322189e-01	-3.59090e-02	
439	2.142500e-08	4.628129e+00	1.266282e-01	-3.27651e-02	
440	2.147500e-08	4.633328e+00	1.195760e-01	-2.71511e-02	
441	2.152500e-08	4.641955e+00	1.124247e-01	-2.12590e-02	
442	2.157500e-08	4.656161e+00	1.061223e-01	-1.66252e-02	
443	2.162500e-08	4.673549e+00	1.011463e-01	-1.40285e-02	
444	2.167500e-08	4.693006e+00	9.743553e-02	-1.33746e-02	
445	2.172500e-08	4.710784e+00	9.454778e-02	-1.39503e-02	
446	2.177500e-08	4.723784e+00	9.206140e-02	-1.48737e-02	
447	2.182500e-08	4.733090e+00	8.999704e-02	-1.52249e-02	
448	2.187500e-08	4.739905e+00	8.870674e-02	-1.40830e-02	
449	2.192500e-08	4.744631e+00	8.942994e-02	-1.26859e-02	
450	2.197500e-08	4.747693e+00	9.288359e-02	-1.30018e-02	
451	2.202500e-08	4.749780e+00	9.729412e-02	-1.43847e-02	
452	2.207500e-08	4.751601e+00	1.013811e-01	-1.71952e-02	
453	2.212500e-08	4.753703e+00	1.033370e-01	-1.96513e-02	
454	2.217500e-08	4.756528e+00	1.024159e-01	-2.00816e-02	
455	2.222500e-08	4.760465e+00	1.001242e-01	-1.97778e-02	
456	2.227500e-08	4.765823e+00	9.775676e-02	-1.99208e-02	
457	2.232500e-08	4.774120e+00	9.561515e-02	-2.05466e-02	
458	2.237500e-08	4.786538e+00	9.352468e-02	-2.12191e-02	
459	2.242500e-08	4.801082e+00	9.123711e-02	-2.15010e-02	
460	2.247500e-08	4.815836e+00	8.853305e-02	-2.10316e-02	

Index   time            v(2)            v(7)            v(9)            
--------------------------------------------------------------------------------
461	2.252500e-08	4.827659e+00	8.524756e-02	-1.95445e-02	
462	2.257500e-08	4.834542e+00	8.136522e-02	-1.70151e-02	
463	2.262500e-08	4.837975e+00	7.709379e-02	-1.37801e-02	
464	2.267500e-08	4.840096e+00	7.286325e-02	-1.04599e-02	
465	2.272500e-08	4.842185e+00	6.998052e-02	-8.77101e-03	
466	2.277500e-08	4.844855e+00	6.987787e-02	-1.02718e-02	
467	2.282500e-08	4.848372e+00	7.239594e-02	-1.40863e-02	
468	2.287500e-08	4.852704e+00	7.684290e-02	-1.92019e-02	
469	2.292500e-08	4.857487e+00	8.130427e-02	-2.35040e-02	
470	2.297500e-08	4.862139e+00	8.388627e-02	-2.53214e-02	
471	2.302500e-08	4.866106e+00	8.433023e-02	-2.52244e-02	
472	2.307500e-08	4.869097e+00	8.312863e-02	-2.41355e-02	
473	2.312500e-08	4.872086e+00	8.079383e-02	-2.23876e-02	
474	2.317500e-08	4.876576e+00	7.776902e-02	-2.01043e-02	
475	2.322500e-08	4.882610e+00	7.447631e-02	-1.75795e-02	
476	2.327500e-08	4.890076e+00	7.130969e-02	-1.52762e-02	
477	2.332500e-08	4.897690e+00	6.855927e-02	-1.36078e-02	
478	2.337500e-08	4.904065e+00	6.634165e-02	-1.27505e-02	
479	2.342500e-08	4.909370e+00	6.459143e-02	-1.25975e-02	
480	2.347500e-08	4.914130e+00	6.312777e-02	-1.28566e-02	
481	2.352500e-08	4.918433e+00	6.216672e-02	-1.38778e-02	
482	2.357500e-08	4.922094e+00	6.209345e-02	-1.62567e-02	
483	2.362500e-08	4.924948e+00	6.264429e-02	-1.94008e-02	
484	2.367500e-08	4.927000e+00	6.360439e-02	-2.25915e-02	
485	2.372500e-08	4.928437e+00	6.440013e-02	-2.45000e-02	
486	2.377500e-08	4.929544e+00	6.448947e-02	-2.41412e-02	
487	2.382500e-08	4.930615e+00	6.405928e-02	-2.21918e-02	
488	2.387500e-08	4.931893e+00	6.344869e-02	-1.99309e-02	
489	2.392500e-08	4.934094e+00	6.276637e-02	-1.82209e-02	
490	2.397500e-08	4.938044e+00	6.199761e-02	-1.73273e-02	
491	2.402500e-08	4.943494e+00	6.113288e-02	-1.71023e-02	
492	2.407500e-08	4.949884e+00	6.017230e-02	-1.72251e-02	
493	2.412500e-08	4.956004e+00	5.909199e-02	-1.73751e-02	
494	2.417500e-08	4.960691e+00	5.784248e-02	-1.73099e-02	
495	2.422500e-08	4.963955e+00	5.637130e-02	-1.68761e-02	
496	2.427500e-08	4.966322e+00	5.465672e-02	-1.60160e-02	
497	2.432500e-08	4.968177e+00	5.299628e-02	-1.52062e-02	
498	2.437500e-08	4.969717e+00	5.187021e-02	-1.52232e-02	
499	2.442500e-08	4.971103e+00	5.135879e-02	-1.61981e-02	
500	2.447500e-08	4.972513e+00	5.141573e-02	-1.80462e-02	
501	2.452500e-08	4.974112e+00	5.166380e-02	-2.00897e-02	
502	2.457500e-08	4.975987e+00	5.167954e-02	-2.14695e-02	
503	2.462500e-08	4.978092e+00	5.151332e-02	-2.20361e-02	
504	2.467500e-08	4.980263e+00	5.138682e-02	-2.20151e-02	
505	2.472500e-08	4.982607e+00	5.134040e-02	-2.15799e-02	
506	2.477500e-08	4.985429e+00	5.121494e-02	-2.08213e-02	
507	2.482500e-08	4.988591e+00	5.079980e-02	-1.98166e-02	
508	2.487500e-08	4.991895e+00	4.998251e-02	-1.86533e-02	
509	2.492500e-08	4.994861e+00	4.881056e-02	-1.74363e-02	
510	2.497500e-08	4.997013e+00	4.745189e-02	-1.62974e-02	
511	2.502500e-08	4.998538e+00	4.610100e-02	-1.53758e-02	
512	2.507500e-08	4.999945e+00	4.489692e-02	-1.47690e-02	
513	2.512500e-08	5.001587e+00	4.404134e-02	-1.47372e-02	
514	2.517500e-08	5.003538e+00	4.374111e-02	-1.55888e-02	
515	2.522500e-08	5.005666e+00	4.390107e-02	-1.71618e-02	
516	2.527500e-08	5.007731e+00	4.431572e-02	-1.91222e-02	
517	2.532500e-08	5.009513e+00	4.461266e-02	-2.08671e-02	
518	2.537500e-08	5.010899e+00	4.442188e-02	-2.17942e-02	

Index   time            v(2)            v(7)            v(9)            
--------------------------------------------------------------------------------
519	2.542500e-08	5.011903e+00	4.372546e-02	-2.18461e-02	
520	2.547500e-08	5.012638e+00	4.275071e-02	-2.13108e-02	
521	2.552500e-08	5.013443e+00	4.175328e-02	-2.04774e-02	
522	2.557500e-08	5.014769e+00	4.092410e-02	-1.95527e-02	
523	2.562500e-08	5.016713e+00	4.035451e-02	-1.86921e-02	
524	2.567500e-08	5.019179e+00	4.002226e-02	-1.80101e-02	
525	2.572500e-08	5.021785e+00	3.981754e-02	-1.75610e-02	
526	2.577500e-08	5.024046e+00	3.960709e-02	-1.73263e-02	
527	2.582500e-08	5.025822e+00	3.929400e-02	-1.72266e-02	
528	2.587500e-08	5.027213e+00	3.883487e-02	-1.71519e-02	
529	2.592500e-08	5.028327e+00	3.831631e-02	-1.71483e-02	
530	2.597500e-08	5.029237e+00	3.790606e-02	-1.73990e-02	
531	2.602500e-08	5.030017e+00	3.763699e-02	-1.79016e-02	
532	2.607500e-08	5.030751e+00	3.748031e-02	-1.85817e-02	
533	2.612500e-08	5.031502e+00	3.730654e-02	-1.92197e-02	
534	2.617500e-08	5.032307e+00	3.696139e-02	-1.95631e-02	
535	2.622500e-08	5.033180e+00	3.645675e-02	-1.96311e-02	
536	2.627500e-08	5.034124e+00	3.590675e-02	-1.96069e-02	
537	2.632500e-08	5.035247e+00	3.539247e-02	-1.96106e-02	
538	2.637500e-08	5.036716e+00	3.493636e-02	-1.96431e-02	
539	2.642500e-08	5.038488e+00	3.453554e-02	-1.96350e-02	
540	2.647500e-08	5.040400e+00	3.418165e-02	-1.95072e-02	
541	2.652500e-08	5.042159e+00	3.385713e-02	-1.92096e-02	
542	2.657500e-08	5.043466e+00	3.352838e-02	-1.87428e-02	
543	2.662500e-08	5.044297e+00	3.315531e-02	-1.81601e-02	
544	2.667500e-08	5.044838e+00	3.271529e-02	-1.75508e-02	
545	2.672500e-08	5.045286e+00	3.227389e-02	-1.70967e-02	
546	2.677500e-08	5.045766e+00	3.196795e-02	-1.70261e-02	
547	2.682500e-08	5.046344e+00	3.185432e-02	-1.73898e-02	
548	2.687500e-08	5.047044e+00	3.191244e-02	-1.81015e-02	
549	2.692500e-08	5.047857e+00	3.201933e-02	-1.89205e-02	
550	2.697500e-08	5.048738e+00	3.200725e-02	-1.95512e-02	
551	2.702500e-08	5.049616e+00	3.180993e-02	-1.98749e-02	
552	2.707500e-08	5.050415e+00	3.145842e-02	-1.99383e-02	
553	2.712500e-08	5.051152e+00	3.100294e-02	-1.98215e-02	
554	2.717500e-08	5.051949e+00	3.048104e-02	-1.95841e-02	
555	2.722500e-08	5.052862e+00	2.992525e-02	-1.92748e-02	
556	2.727500e-08	5.053895e+00	2.937635e-02	-1.89435e-02	
557	2.732500e-08	5.054951e+00	2.888181e-02	-1.86352e-02	
558	2.737500e-08	5.055879e+00	2.848412e-02	-1.83803e-02	
559	2.742500e-08	5.056643e+00	2.820293e-02	-1.81869e-02	
560	2.747500e-08	5.057309e+00	2.802331e-02	-1.80459e-02	
561	2.752500e-08	5.057935e+00	2.793249e-02	-1.79912e-02	
562	2.757500e-08	5.058529e+00	2.793469e-02	-1.81033e-02	
563	2.762500e-08	5.059067e+00	2.799682e-02	-1.83862e-02	
564	2.767500e-08	5.059525e+00	2.806821e-02	-1.87796e-02	
565	2.772500e-08	5.059900e+00	2.807401e-02	-1.91498e-02	
566	2.777500e-08	5.060217e+00	2.793784e-02	-1.93452e-02	
567	2.782500e-08	5.060514e+00	2.765690e-02	-1.93336e-02	
568	2.787500e-08	5.060837e+00	2.729480e-02	-1.91981e-02	
569	2.792500e-08	5.061257e+00	2.692067e-02	-1.90410e-02	
570	2.797500e-08	5.061868e+00	2.657644e-02	-1.89258e-02	
571	2.802500e-08	5.062684e+00	2.627426e-02	-1.88706e-02	
572	2.807500e-08	5.063648e+00	2.600653e-02	-1.88627e-02	
573	2.812500e-08	5.064627e+00	2.575687e-02	-1.88739e-02	
574	2.817500e-08	5.065462e+00	2.550917e-02	-1.88709e-02	
575	2.822500e-08	5.066078e+00	2.525426e-02	-1.88237e-02	
576	2.827500e-08	5.066504e+00	2.499371e-02	-1.87134e-02	

Index   time            v(2)            v(7)            v(9)            
--------------------------------------------------------------------------------
577	2.832500e-08	5.066805e+00	2.475552e-02	-1.85674e-02	
578	2.837500e-08	5.067040e+00	2.458984e-02	-1.84664e-02	
579	2.842500e-08	5.067252e+00	2.451685e-02	-1.84664e-02	
580	2.847500e-08	5.067474e+00	2.452322e-02	-1.85848e-02	
581	2.852500e-08	5.067727e+00	2.455847e-02	-1.87790e-02	
582	2.857500e-08	5.068021e+00	2.455555e-02	-1.89619e-02	
583	2.862500e-08	5.068355e+00	2.448280e-02	-1.90839e-02	
584	2.867500e-08	5.068714e+00	2.435071e-02	-1.91497e-02	
585	2.872500e-08	5.069107e+00	2.418019e-02	-1.91762e-02	
586	2.877500e-08	5.069566e+00	2.398278e-02	-1.91684e-02	
587	2.882500e-08	5.070098e+00	2.376164e-02	-1.91231e-02	
588	2.887500e-08	5.070677e+00	2.351824e-02	-1.90383e-02	
589	2.892500e-08	5.071244e+00	2.325767e-02	-1.89203e-02	
590	2.897500e-08	5.071721e+00	2.299006e-02	-1.87853e-02	
591	2.902500e-08	5.072084e+00	2.272819e-02	-1.86529e-02	
592	2.907500e-08	5.072368e+00	2.248590e-02	-1.85423e-02	
593	2.912500e-08	5.072623e+00	2.228583e-02	-1.84835e-02	
594	2.917500e-08	5.072883e+00	2.215974e-02	-1.85163e-02	
595	2.922500e-08	5.073156e+00	2.211939e-02	-1.86479e-02	
596	2.927500e-08	5.073433e+00	2.214995e-02	-1.88507e-02	
597	2.932500e-08	5.073698e+00	2.220818e-02	-1.90622e-02	
598	2.937500e-08	5.073938e+00	2.223460e-02	-1.92059e-02	
599	2.942500e-08	5.074142e+00	2.219288e-02	-1.92464e-02	
600	2.947500e-08	5.074313e+00	2.208278e-02	-1.92001e-02	
601	2.952500e-08	5.074476e+00	2.192428e-02	-1.91057e-02	
602	2.957500e-08	5.074680e+00	2.174143e-02	-1.89981e-02	
603	2.962500e-08	5.074960e+00	2.155390e-02	-1.89006e-02	
604	2.967500e-08	5.075322e+00	2.137616e-02	-1.88274e-02	
605	2.972500e-08	5.075736e+00	2.121505e-02	-1.87837e-02	
606	2.977500e-08	5.076143e+00	2.107058e-02	-1.87655e-02	
607	2.982500e-08	5.076501e+00	2.093787e-02	-1.87633e-02	
608	2.987500e-08	5.076799e+00	2.080951e-02	-1.87645e-02	
609	2.992500e-08	5.077045e+00	2.068537e-02	-1.87680e-02	
610	2.997500e-08	5.077246e+00	2.057690e-02	-1.87912e-02	
611	3.002500e-08	5.077408e+00	2.049266e-02	-1.88447e-02	
612	3.007500e-08	5.077541e+00	2.043384e-02	-1.89247e-02	
613	3.012500e-08	5.077657e+00	2.039108e-02	-1.90086e-02	
614	3.017500e-08	5.077768e+00	2.034566e-02	-1.90625e-02	
615	3.022500e-08	5.077887e+00	2.028748e-02	-1.90716e-02	
616	3.027500e-08	5.078020e+00	2.021985e-02	-1.90501e-02	
617	3.032500e-08	5.078178e+00	2.014886e-02	-1.90212e-02	
618	3.037500e-08	5.078379e+00	2.007622e-02	-1.89992e-02	
619	3.042500e-08	5.078629e+00	1.999863e-02	-1.89853e-02	
620	3.047500e-08	5.078915e+00	1.991214e-02	-1.89734e-02	
621	3.052500e-08	5.079206e+00	1.981420e-02	-1.89555e-02	
622	3.057500e-08	5.079463e+00	1.970425e-02	-1.89254e-02	
623	3.062500e-08	5.079664e+00	1.958405e-02	-1.88814e-02	
624	3.067500e-08	5.079817e+00	1.945771e-02	-1.88273e-02	
625	3.072500e-08	5.079942e+00	1.933481e-02	-1.87769e-02	
626	3.077500e-08	5.080058e+00	1.923131e-02	-1.87556e-02	
627	3.082500e-08	5.080176e+00	1.915812e-02	-1.87802e-02	
628	3.087500e-08	5.080300e+00	1.911651e-02	-1.88524e-02	
629	3.092500e-08	5.080431e+00	1.909539e-02	-1.89531e-02	
630	3.097500e-08	5.080564e+00	1.907547e-02	-1.90478e-02	
631	3.102500e-08	5.080695e+00	1.904269e-02	-1.91098e-02	
632	3.107500e-08	5.080817e+00	1.899454e-02	-1.91322e-02	
633	3.112500e-08	5.080931e+00	1.893517e-02	-1.91209e-02	
634	3.117500e-08	5.081049e+00	1.886819e-02	-1.90857e-02	

Index   time            v(2)            v(7)            v(9)            
--------------------------------------------------------------------------------
635	3.122500e-08	5.081183e+00	1.879520e-02	-1.90359e-02	
636	3.127500e-08	5.081336e+00	1.871731e-02	-1.89806e-02	
637	3.132500e-08	5.081501e+00	1.863648e-02	-1.89282e-02	
638	3.137500e-08	5.081661e+00	1.855562e-02	-1.88851e-02	
639	3.142500e-08	5.081803e+00	1.847759e-02	-1.88549e-02	
640	3.147500e-08	5.081928e+00	1.840438e-02	-1.88380e-02	
641	3.152500e-08	5.082046e+00	1.833834e-02	-1.88354e-02	
642	3.157500e-08	5.082160e+00	1.828452e-02	-1.88530e-02	
643	3.162500e-08	5.082270e+00	1.824508e-02	-1.88928e-02	
644	3.167500e-08	5.082372e+00	1.821704e-02	-1.89497e-02	
645	3.172500e-08	5.082462e+00	1.819228e-02	-1.90100e-02	
646	3.177500e-08	5.082540e+00	1.815943e-02	-1.90548e-02	
647	3.182500e-08	5.082608e+00	1.811161e-02	-1.90728e-02	
648	3.187500e-08	5.082665e+00	1.805308e-02	-1.90663e-02	
649	3.190000e-08	5.082697e+00	1.801925e-02	-1.90560e-02	
650	3.190500e-08	5.066600e+00	1.801073e-02	-1.90517e-02	
651	3.191500e-08	5.046241e+00	1.800247e-02	-1.90522e-02	
652	3.193500e-08	4.976480e+00	1.797524e-02	-1.90437e-02	
653	3.197500e-08	4.847651e+00	2.079304e-02	-1.72537e-02	
654	3.202500e-08	4.694908e+00	3.445440e-02	-8.78491e-03	
655	3.207500e-08	4.527276e+00	4.953502e-02	6.032465e-04	
656	3.210000e-08	4.442119e+00	5.957243e-02	6.853006e-03	
657	3.210500e-08	4.432099e+00	6.253840e-02	8.819536e-03	
658	3.211500e-08	4.430431e+00	6.741878e-02	1.176552e-02	
659	3.213500e-08	4.426830e+00	7.709721e-02	1.778039e-02	
660	3.217500e-08	4.416777e+00	9.649563e-02	2.983301e-02	
661	3.222500e-08	4.402833e+00	1.564018e-01	-3.06699e-02	
662	3.227500e-08	4.391563e+00	2.405116e-01	-1.18398e-01	
663	3.232500e-08	4.379443e+00	2.840613e-01	-1.46472e-01	
664	3.237500e-08	4.367489e+00	2.441167e-01	-1.00006e-01	
665	3.242500e-08	4.356140e+00	8.091253e-02	-4.26692e-02	
666	3.247500e-08	4.329439e+00	-9.90303e-02	4.813843e-02	
667	3.252500e-08	4.248909e+00	-2.42149e-01	7.705313e-02	
668	3.257500e-08	4.148637e+00	-3.04718e-01	3.842715e-02	
669	3.262500e-08	4.050585e+00	-2.87392e-01	4.898977e-02	
670	3.267500e-08	3.967156e+00	-2.70469e-01	5.950776e-02	
671	3.272500e-08	3.891371e+00	-2.51869e-01	6.655413e-02	
672	3.277500e-08	3.759473e+00	-2.20204e-01	5.170712e-02	
673	3.282500e-08	3.618369e+00	-1.64100e-01	-3.44656e-03	
674	3.287500e-08	3.439635e+00	-1.00439e-01	-7.16425e-02	
675	3.292500e-08	3.301768e+00	-3.98163e-02	-1.35636e-01	
676	3.297500e-08	3.233539e+00	7.538408e-03	-1.78825e-01	
677	3.302500e-08	3.173878e+00	3.023300e-02	-1.82789e-01	
678	3.307500e-08	3.125435e+00	4.464097e-02	-1.73924e-01	
679	3.312500e-08	3.055932e+00	3.719614e-02	-1.30300e-01	
680	3.317500e-08	2.978877e+00	-7.49785e-03	-2.70859e-02	
681	3.322500e-08	2.909480e+00	-5.40871e-02	7.860591e-02	
682	3.327500e-08	2.862927e+00	-1.10690e-01	1.773952e-01	
683	3.332500e-08	2.845889e+00	-1.76334e-01	2.067765e-01	
684	3.337500e-08	2.837742e+00	-2.11122e-01	1.483095e-01	
685	3.342500e-08	2.829851e+00	-2.30856e-01	6.056747e-02	
686	3.347500e-08	2.822020e+00	-2.37959e-01	-2.44470e-02	
687	3.352500e-08	2.786256e+00	-2.15375e-01	-7.75293e-02	
688	3.357500e-08	2.698339e+00	-1.89025e-01	-9.87705e-02	
689	3.362500e-08	2.594252e+00	-1.73866e-01	-9.74213e-02	
690	3.367500e-08	2.469729e+00	-1.62499e-01	-9.03916e-02	
691	3.372500e-08	2.355106e+00	-1.51372e-01	-8.34686e-02	
692	3.377500e-08	2.270375e+00	-1.40381e-01	-7.68315e-02	

Index   time            v(2)            v(7)            v(9)            
--------------------------------------------------------------------------------
693	3.382500e-08	2.194397e+00	-1.28903e-01	-7.14481e-02	
694	3.387500e-08	2.135468e+00	-1.14800e-01	-7.07789e-02	
695	3.392500e-08	2.096254e+00	-1.06754e-01	-6.07968e-02	
696	3.397500e-08	2.076299e+00	-1.12811e-01	-2.84567e-02	
697	3.402500e-08	2.067021e+00	-1.16674e-01	-1.26105e-04	
698	3.407500e-08	2.060241e+00	-1.22870e-01	3.149190e-02	
699	3.412500e-08	2.052089e+00	-1.22838e-01	5.258732e-02	
700	3.417500e-08	2.038448e+00	-1.14317e-01	5.104578e-02	
701	3.422500e-08	2.013721e+00	-1.23977e-01	4.246784e-02	
702	3.427500e-08	1.976093e+00	-1.49174e-01	2.687586e-02	
703	3.432500e-08	1.915682e+00	-1.79664e-01	7.875444e-03	
704	3.437500e-08	1.827902e+00	-2.06822e-01	-9.86272e-03	
705	3.442500e-08	1.744622e+00	-2.17005e-01	-2.03407e-02	
706	3.447500e-08	1.673348e+00	-2.09433e-01	-2.82750e-02	
707	3.452500e-08	1.627511e+00	-1.90363e-01	-4.31958e-02	
708	3.457500e-08	1.613093e+00	-1.64372e-01	-6.75957e-02	
709	3.462500e-08	1.605326e+00	-1.36402e-01	-9.54353e-02	
710	3.467500e-08	1.591018e+00	-1.11719e-01	-1.18335e-01	
711	3.472500e-08	1.566688e+00	-1.01296e-01	-1.18503e-01	
712	3.477500e-08	1.532583e+00	-1.12741e-01	-8.36035e-02	
713	3.482500e-08	1.490213e+00	-1.31980e-01	-3.63944e-02	
714	3.487500e-08	1.446967e+00	-1.52830e-01	1.311740e-02	
715	3.492500e-08	1.409841e+00	-1.65557e-01	4.919001e-02	
716	3.497500e-08	1.382004e+00	-1.63258e-01	6.064323e-02	
717	3.502500e-08	1.364366e+00	-1.54351e-01	6.109143e-02	
718	3.507500e-08	1.355207e+00	-1.42528e-01	5.332044e-02	
719	3.512500e-08	1.340290e+00	-1.32958e-01	3.356898e-02	
720	3.517500e-08	1.306005e+00	-1.29083e-01	3.144538e-03	
721	3.522500e-08	1.264868e+00	-1.30907e-01	-3.02184e-02	
722	3.527500e-08	1.220948e+00	-1.36626e-01	-5.81544e-02	
723	3.532500e-08	1.183814e+00	-1.40893e-01	-7.43548e-02	
724	3.537500e-08	1.160043e+00	-1.40578e-01	-7.89148e-02	
725	3.542500e-08	1.137295e+00	-1.36786e-01	-7.73744e-02	
726	3.547500e-08	1.112481e+00	-1.31487e-01	-7.43962e-02	
727	3.552500e-08	1.088808e+00	-1.30220e-01	-6.43242e-02	
728	3.557500e-08	1.067887e+00	-1.37683e-01	-4.02828e-02	
729	3.562500e-08	1.049536e+00	-1.46664e-01	-1.40179e-02	
730	3.567500e-08	1.033154e+00	-1.53380e-01	8.347939e-03	
731	3.572500e-08	1.018178e+00	-1.52427e-01	1.806941e-02	
732	3.577500e-08	1.005850e+00	-1.41130e-01	1.082032e-02	
733	3.582500e-08	9.968495e-01	-1.27351e-01	-6.71664e-04	
734	3.587500e-08	9.889554e-01	-1.16002e-01	-8.44959e-03	
735	3.592500e-08	9.729066e-01	-1.08027e-01	-1.09785e-02	
736	3.597500e-08	9.398961e-01	-1.02955e-01	-1.02184e-02	
737	3.602500e-08	8.979055e-01	-1.01684e-01	-9.93060e-03	
738	3.607500e-08	8.538162e-01	-1.05177e-01	-1.27302e-02	
739	3.612500e-08	8.183860e-01	-1.12148e-01	-1.89983e-02	
740	3.617500e-08	7.998187e-01	-1.19364e-01	-2.82581e-02	
741	3.622500e-08	7.915367e-01	-1.22401e-01	-3.95146e-02	
742	3.627500e-08	7.874253e-01	-1.18631e-01	-5.17850e-02	
743	3.632500e-08	7.844448e-01	-1.12179e-01	-5.97235e-02	
744	3.637500e-08	7.812526e-01	-1.09987e-01	-5.64105e-02	
745	3.642500e-08	7.768092e-01	-1.11782e-01	-4.53373e-02	
746	3.647500e-08	7.691311e-01	-1.16769e-01	-2.89523e-02	
747	3.652500e-08	7.562918e-01	-1.21210e-01	-1.35705e-02	
748	3.657500e-08	7.383194e-01	-1.21061e-01	-5.76832e-03	
749	3.662500e-08	7.176543e-01	-1.18251e-01	-2.42828e-03	
750	3.667500e-08	6.983256e-01	-1.14454e-01	-8.37426e-04	

Index   time            v(2)            v(7)            v(9)            
--------------------------------------------------------------------------------
751	3.672500e-08	6.801376e-01	-1.09874e-01	-6.64472e-04	
752	3.677500e-08	6.593391e-01	-1.04088e-01	-2.59618e-03	
753	3.682500e-08	6.384236e-01	-9.67094e-02	-7.25468e-03	
754	3.687500e-08	6.182813e-01	-8.80926e-02	-1.45214e-02	
755	3.692500e-08	6.020933e-01	-8.00906e-02	-2.36090e-02	
756	3.697500e-08	5.932155e-01	-7.51326e-02	-3.32580e-02	
757	3.702500e-08	5.875288e-01	-7.43349e-02	-4.20171e-02	
758	3.707500e-08	5.811853e-01	-7.68785e-02	-4.88246e-02	
759	3.712500e-08	5.727671e-01	-8.20984e-02	-5.04657e-02	
760	3.717500e-08	5.625399e-01	-8.98275e-02	-4.34050e-02	
761	3.722500e-08	5.518524e-01	-9.73841e-02	-3.11820e-02	
762	3.727500e-08	5.423849e-01	-1.03613e-01	-1.74196e-02	
763	3.732500e-08	5.351903e-01	-1.06740e-01	-7.06123e-03	
764	3.737500e-08	5.299743e-01	-1.04804e-01	-4.46502e-03	
765	3.742500e-08	5.254448e-01	-9.93790e-02	-7.51586e-03	
766	3.747500e-08	5.204145e-01	-9.24454e-02	-1.31078e-02	
767	3.752500e-08	5.123156e-01	-8.53730e-02	-1.90385e-02	
768	3.757500e-08	4.984080e-01	-7.91238e-02	-2.37489e-02	
769	3.762500e-08	4.810421e-01	-7.41920e-02	-2.64336e-02	
770	3.767500e-08	4.622021e-01	-7.05283e-02	-2.71676e-02	
771	3.772500e-08	4.447304e-01	-6.77048e-02	-2.66410e-02	
772	3.777500e-08	4.317828e-01	-6.52843e-02	-2.57313e-02	
773	3.782500e-08	4.224870e-01	-6.32691e-02	-2.53615e-02	
774	3.787500e-08	4.156773e-01	-6.20070e-02	-2.64430e-02	
775	3.792500e-08	4.109580e-01	-6.25716e-02	-2.79829e-02	
776	3.797500e-08	4.079140e-01	-6.59397e-02	-2.76498e-02	
777	3.802500e-08	4.058666e-01	-7.04141e-02	-2.60960e-02	
778	3.807500e-08	4.041092e-01	-7.43274e-02	-2.36417e-02	
779	3.812500e-08	4.020839e-01	-7.62465e-02	-2.14055e-02	
780	3.817500e-08	3.993521e-01	-7.53923e-02	-2.10372e-02	
781	3.822500e-08	3.955301e-01	-7.31650e-02	-2.13869e-02	
782	3.827500e-08	3.902994e-01	-7.08513e-02	-2.12900e-02	
783	3.832500e-08	3.823203e-01	-6.87671e-02	-2.06953e-02	
784	3.837500e-08	3.701074e-01	-6.67428e-02	-2.00351e-02	
785	3.842500e-08	3.555887e-01	-6.45304e-02	-1.97486e-02	
786	3.847500e-08	3.411762e-01	-6.19080e-02	-2.01999e-02	
787	3.852500e-08	3.295351e-01	-5.87112e-02	-2.16553e-02	
788	3.857500e-08	3.226700e-01	-5.49146e-02	-2.41553e-02	
789	3.862500e-08	3.192477e-01	-5.07134e-02	-2.73840e-02	
790	3.867500e-08	3.171672e-01	-4.65297e-02	-3.07223e-02	
791	3.872500e-08	3.151426e-01	-4.35740e-02	-3.25937e-02	
792	3.877500e-08	3.125514e-01	-4.34156e-02	-3.12058e-02	
793	3.882500e-08	3.091182e-01	-4.59355e-02	-2.73566e-02	
794	3.887500e-08	3.048647e-01	-5.02163e-02	-2.24394e-02	
795	3.892500e-08	3.001382e-01	-5.45826e-02	-1.82428e-02	
796	3.897500e-08	2.955163e-01	-5.71848e-02	-1.64147e-02	
797	3.902500e-08	2.915646e-01	-5.76978e-02	-1.64852e-02	
798	3.907500e-08	2.885836e-01	-5.65764e-02	-1.75545e-02	
799	3.912500e-08	2.857305e-01	-5.43182e-02	-1.92852e-02	
800	3.917500e-08	2.813469e-01	-5.13591e-02	-2.15583e-02	
801	3.922500e-08	2.753349e-01	-4.81172e-02	-2.40892e-02	
802	3.927500e-08	2.681091e-01	-4.49869e-02	-2.64180e-02	
803	3.932500e-08	2.606998e-01	-4.22653e-02	-2.81218e-02	
804	3.937500e-08	2.544321e-01	-4.00751e-02	-2.90149e-02	
805	3.942500e-08	2.491977e-01	-3.83540e-02	-2.91992e-02	
806	3.947500e-08	2.444888e-01	-3.69248e-02	-2.89613e-02	
807	3.952500e-08	2.402163e-01	-3.59483e-02	-2.80402e-02	
808	3.957500e-08	2.365706e-01	-3.58813e-02	-2.57208e-02	

Index   time            v(2)            v(7)            v(9)            
--------------------------------------------------------------------------------
809	3.962500e-08	2.337249e-01	-3.64876e-02	-2.25425e-02	
810	3.967500e-08	2.316820e-01	-3.74068e-02	-1.94511e-02	
811	3.972500e-08	2.302609e-01	-3.81665e-02	-1.76038e-02	
812	3.977500e-08	2.291766e-01	-3.82503e-02	-1.79477e-02	
813	3.982500e-08	2.281385e-01	-3.78187e-02	-1.98739e-02	
814	3.987500e-08	2.269027e-01	-3.72102e-02	-2.21358e-02	
815	3.992500e-08	2.248216e-01	-3.65414e-02	-2.38673e-02	
816	3.997500e-08	2.209745e-01	-3.57970e-02	-2.47886e-02	
817	4.002500e-08	2.155585e-01	-3.49628e-02	-2.50371e-02	
818	4.007500e-08	2.093034e-01	-3.40353e-02	-2.49296e-02	
819	4.012500e-08	2.032926e-01	-3.29912e-02	-2.47841e-02	
820	4.017500e-08	1.986458e-01	-3.17814e-02	-2.48447e-02	
821	4.022500e-08	1.954039e-01	-3.03512e-02	-2.52699e-02	
822	4.027500e-08	1.930629e-01	-2.86771e-02	-2.61207e-02	
823	4.032500e-08	1.912381e-01	-2.70202e-02	-2.69799e-02	
824	4.037500e-08	1.897263e-01	-2.58981e-02	-2.70103e-02	
825	4.042500e-08	1.883706e-01	-2.54156e-02	-2.60414e-02	
826	4.047500e-08	1.869941e-01	-2.54460e-02	-2.42863e-02	
827	4.052500e-08	1.854303e-01	-2.56689e-02	-2.23271e-02	
828	4.057500e-08	1.835911e-01	-2.56865e-02	-2.09762e-02	
829	4.062500e-08	1.815170e-01	-2.55299e-02	-2.04094e-02	
830	4.067500e-08	1.793690e-01	-2.54090e-02	-2.04197e-02	
831	4.072500e-08	1.770830e-01	-2.53673e-02	-2.08388e-02	
832	4.077500e-08	1.743070e-01	-2.52533e-02	-2.15803e-02	
833	4.082500e-08	1.711498e-01	-2.48600e-02	-2.25717e-02	
834	4.087500e-08	1.679131e-01	-2.40712e-02	-2.37287e-02	
835	4.092500e-08	1.650177e-01	-2.29283e-02	-2.49464e-02	
836	4.097500e-08	1.629026e-01	-2.15947e-02	-2.60928e-02	
837	4.102500e-08	1.614036e-01	-2.02631e-02	-2.70281e-02	
838	4.107500e-08	1.600286e-01	-1.90748e-02	-2.76518e-02	
839	4.112500e-08	1.584259e-01	-1.82141e-02	-2.77325e-02	
840	4.117500e-08	1.565126e-01	-1.79115e-02	-2.69243e-02	
841	4.122500e-08	1.544172e-01	-1.80908e-02	-2.53584e-02	
842	4.127500e-08	1.523734e-01	-1.84999e-02	-2.34449e-02	
843	4.132500e-08	1.506026e-01	-1.87930e-02	-2.17431e-02	
844	4.137500e-08	1.492234e-01	-1.86183e-02	-2.08258e-02	
845	4.142500e-08	1.482248e-01	-1.79460e-02	-2.07673e-02	
846	4.147500e-08	1.474998e-01	-1.69920e-02	-2.12956e-02	
847	4.152500e-08	1.467343e-01	-1.60074e-02	-2.21260e-02	
848	4.157500e-08	1.454515e-01	-1.51828e-02	-2.30509e-02	
849	4.162500e-08	1.435297e-01	-1.46123e-02	-2.39138e-02	
850	4.167500e-08	1.411206e-01	-1.42789e-02	-2.46005e-02	
851	4.172500e-08	1.385740e-01	-1.40780e-02	-2.50557e-02	
852	4.177500e-08	1.363451e-01	-1.38784e-02	-2.52962e-02	
853	4.182500e-08	1.345834e-01	-1.35813e-02	-2.54005e-02	
854	4.187500e-08	1.332005e-01	-1.31410e-02	-2.54771e-02	
855	4.192500e-08	1.320942e-01	-1.26305e-02	-2.54994e-02	
856	4.197500e-08	1.311937e-01	-1.22275e-02	-2.52668e-02	
857	4.202500e-08	1.304253e-01	-1.19765e-02	-2.47639e-02	
858	4.207500e-08	1.297081e-01	-1.18205e-02	-2.41106e-02	
859	4.212500e-08	1.289760e-01	-1.16424e-02	-2.35065e-02	
860	4.217500e-08	1.281912e-01	-1.13017e-02	-2.31821e-02	
861	4.222500e-08	1.273379e-01	-1.08073e-02	-2.31237e-02	
862	4.227500e-08	1.264113e-01	-1.02681e-02	-2.31557e-02	
863	4.232500e-08	1.253195e-01	-9.76427e-03	-2.31587e-02	
864	4.237500e-08	1.238809e-01	-9.31849e-03	-2.31304e-02	
865	4.242500e-08	1.221211e-01	-8.92735e-03	-2.31386e-02	
866	4.247500e-08	1.202360e-01	-8.58196e-03	-2.32626e-02	

Index   time            v(2)            v(7)            v(9)            
--------------------------------------------------------------------------------
867	4.252500e-08	1.185075e-01	-8.26467e-03	-2.35537e-02	
868	4.257500e-08	1.172165e-01	-7.94288e-03	-2.40135e-02	
869	4.262500e-08	1.163928e-01	-7.57771e-03	-2.45913e-02	
870	4.267500e-08	1.158590e-01	-7.14654e-03	-2.52005e-02	
871	4.272500e-08	1.154215e-01	-6.70710e-03	-2.56704e-02	
872	4.277500e-08	1.149540e-01	-6.40173e-03	-2.57617e-02	
873	4.282500e-08	1.143906e-01	-6.29525e-03	-2.54083e-02	
874	4.287500e-08	1.137053e-01	-6.35223e-03	-2.47196e-02	
875	4.292500e-08	1.129067e-01	-6.45604e-03	-2.39260e-02	
876	4.297500e-08	1.120382e-01	-6.44831e-03	-2.33080e-02	
877	4.302500e-08	1.111708e-01	-6.26128e-03	-2.29864e-02	
878	4.307500e-08	1.103802e-01	-5.92202e-03	-2.29217e-02	
879	4.312500e-08	1.096586e-01	-5.47892e-03	-2.30368e-02	
880	4.317500e-08	1.088795e-01	-4.96857e-03	-2.32731e-02	
881	4.322500e-08	1.079745e-01	-4.42316e-03	-2.35827e-02	
882	4.327500e-08	1.069616e-01	-3.88245e-03	-2.39162e-02	
883	4.332500e-08	1.059317e-01	-3.39385e-03	-2.42277e-02	
884	4.337500e-08	1.050221e-01	-2.99999e-03	-2.44861e-02	
885	4.342500e-08	1.042694e-01	-2.72105e-03	-2.46822e-02	
886	4.347500e-08	1.036126e-01	-2.54342e-03	-2.48251e-02	
887	4.352500e-08	1.029942e-01	-2.45131e-03	-2.48877e-02	
888	4.357500e-08	1.024062e-01	-2.45331e-03	-2.47848e-02	
889	4.362500e-08	1.018730e-01	-2.52151e-03	-2.45041e-02	
890	4.367500e-08	1.014189e-01	-2.59595e-03	-2.41202e-02	
891	4.372500e-08	1.010475e-01	-2.60312e-03	-2.37626e-02	
892	4.377500e-08	1.007364e-01	-2.47166e-03	-2.35744e-02	
893	4.382500e-08	1.004455e-01	-2.19797e-03	-2.35888e-02	
894	4.387500e-08	1.001318e-01	-1.84279e-03	-2.37267e-02	
895	4.392500e-08	9.972729e-02	-1.47476e-03	-2.38872e-02	
896	4.397500e-08	9.913427e-02	-1.13595e-03	-2.40067e-02	
897	4.402500e-08	9.833019e-02	-8.39119e-04	-2.40660e-02	
898	4.407500e-08	9.738223e-02	-5.77182e-04	-2.40770e-02	
899	4.412500e-08	9.641952e-02	-3.33720e-04	-2.40679e-02	
900	4.417500e-08	9.559566e-02	-9.24030e-05	-2.40717e-02	
901	4.422500e-08	9.498423e-02	1.559856e-04	-2.41182e-02	
902	4.427500e-08	9.456066e-02	4.107919e-04	-2.42273e-02	
903	4.432500e-08	9.426226e-02	6.468405e-04	-2.43761e-02	
904	4.437500e-08	9.403135e-02	8.125434e-04	-2.44819e-02	
905	4.442500e-08	9.382405e-02	8.839148e-04	-2.44841e-02	
906	4.447500e-08	9.360787e-02	8.785156e-04	-2.43730e-02	
907	4.452500e-08	9.336086e-02	8.451730e-04	-2.41900e-02	
908	4.457500e-08	9.307274e-02	8.474451e-04	-2.40154e-02	
909	4.462500e-08	9.274545e-02	9.165899e-04	-2.38977e-02	
910	4.467500e-08	9.239123e-02	1.043698e-03	-2.38342e-02	
911	4.472500e-08	9.200675e-02	1.208787e-03	-2.38089e-02	
912	4.477500e-08	9.155673e-02	1.400445e-03	-2.38170e-02	
913	4.482500e-08	9.103096e-02	1.615791e-03	-2.38623e-02	
914	4.487500e-08	9.046033e-02	1.853470e-03	-2.39471e-02	
915	4.492500e-08	8.990519e-02	2.108584e-03	-2.40650e-02	
916	4.497500e-08	8.943682e-02	2.371388e-03	-2.42011e-02	
917	4.502500e-08	8.907948e-02	2.628865e-03	-2.43349e-02	
918	4.507500e-08	8.880000e-02	2.867577e-03	-2.44476e-02	
919	4.512500e-08	8.854892e-02	3.066221e-03	-2.45115e-02	
920	4.517500e-08	8.829371e-02	3.191992e-03	-2.44847e-02	
921	4.522500e-08	8.802549e-02	3.231040e-03	-2.43561e-02	
922	4.527500e-08	8.775219e-02	3.200428e-03	-2.41577e-02	
923	4.532500e-08	8.748943e-02	3.143237e-03	-2.39517e-02	
924	4.537500e-08	8.725243e-02	3.116126e-03	-2.38110e-02	

Index   time            v(2)            v(7)            v(9)            
--------------------------------------------------------------------------------
925	4.542500e-08	8.704990e-02	3.155006e-03	-2.37713e-02	
926	4.547500e-08	8.688112e-02	3.261178e-03	-2.38174e-02	
927	4.552500e-08	8.672311e-02	3.415512e-03	-2.39119e-02	
928	4.557500e-08	8.652538e-02	3.594700e-03	-2.40206e-02	
929	4.562500e-08	8.625057e-02	3.778761e-03	-2.41195e-02	
930	4.567500e-08	8.589550e-02	3.953592e-03	-2.41945e-02	
931	4.572500e-08	8.549085e-02	4.112012e-03	-2.42405e-02	
932	4.577500e-08	8.509163e-02	4.253618e-03	-2.42604e-02	
933	4.582500e-08	8.473905e-02	4.383234e-03	-2.42639e-02	
934	4.587500e-08	8.444365e-02	4.508342e-03	-2.42638e-02	
935	4.592500e-08	8.419996e-02	4.630124e-03	-2.42624e-02	
936	4.597500e-08	8.400109e-02	4.736760e-03	-2.42419e-02	
937	4.602500e-08	8.384055e-02	4.818467e-03	-2.41897e-02	
938	4.607500e-08	8.370948e-02	4.875617e-03	-2.41120e-02	
939	4.612500e-08	8.359594e-02	4.918303e-03	-2.40319e-02	
940	4.617500e-08	8.348690e-02	4.963539e-03	-2.39813e-02	
941	4.622500e-08	8.337105e-02	5.020816e-03	-2.39739e-02	
942	4.627500e-08	8.324114e-02	5.087205e-03	-2.39964e-02	
943	4.632500e-08	8.308721e-02	5.156573e-03	-2.40264e-02	
944	4.637500e-08	8.289071e-02	5.227362e-03	-2.40495e-02	
945	4.642500e-08	8.264444e-02	5.302580e-03	-2.40642e-02	
946	4.647500e-08	8.236255e-02	5.386397e-03	-2.40766e-02	
947	4.652500e-08	8.207611e-02	5.481616e-03	-2.40950e-02	
948	4.657500e-08	8.182317e-02	5.588778e-03	-2.41253e-02	
949	4.662500e-08	8.162451e-02	5.706116e-03	-2.41693e-02	
950	4.667500e-08	8.147381e-02	5.829822e-03	-2.42236e-02	
951	4.672500e-08	8.135096e-02	5.950946e-03	-2.42755e-02	
952	4.677500e-08	8.123744e-02	6.053463e-03	-2.42997e-02	
953	4.682500e-08	8.112207e-02	6.125364e-03	-2.42771e-02	
954	4.687500e-08	8.100019e-02	6.166207e-03	-2.42076e-02	
955	4.692500e-08	8.087183e-02	6.187072e-03	-2.41105e-02	
956	4.697500e-08	8.074035e-02	6.206445e-03	-2.40185e-02	
957	4.702500e-08	8.061130e-02	6.238079e-03	-2.39577e-02	
958	4.707500e-08	8.049076e-02	6.284633e-03	-2.39356e-02	
959	4.712500e-08	8.037863e-02	6.342406e-03	-2.39467e-02	
960	4.717500e-08	8.026281e-02	6.407776e-03	-2.39816e-02	
961	4.722500e-08	8.013095e-02	6.479094e-03	-2.40312e-02	
962	4.727500e-08	7.998015e-02	6.555349e-03	-2.40867e-02	
963	4.732500e-08	7.981861e-02	6.634651e-03	-2.41397e-02	
964	4.737500e-08	7.966267e-02	6.714057e-03	-2.41837e-02	
965	4.742500e-08	7.952356e-02	6.790555e-03	-2.42147e-02	
966	4.747500e-08	7.939998e-02	6.862297e-03	-2.42326e-02	
967	4.752500e-08	7.928449e-02	6.927051e-03	-2.42364e-02	
968	4.757500e-08	7.917225e-02	6.979948e-03	-2.42206e-02	
969	4.762500e-08	7.906378e-02	7.018308e-03	-2.41820e-02	
970	4.767500e-08	7.896288e-02	7.045262e-03	-2.41264e-02	
971	4.772500e-08	7.887324e-02	7.069241e-03	-2.40678e-02	
972	4.777500e-08	7.879612e-02	7.101278e-03	-2.40244e-02	
973	4.782500e-08	7.872971e-02	7.147804e-03	-2.40072e-02	
974	4.787500e-08	7.866978e-02	7.206574e-03	-2.40141e-02	
975	4.792500e-08	7.860837e-02	7.269894e-03	-2.40345e-02	
976	4.797500e-08	7.853248e-02	7.330115e-03	-2.40581e-02	
977	4.802500e-08	7.843225e-02	7.382835e-03	-2.40787e-02	
978	4.807500e-08	7.830784e-02	7.427500e-03	-2.40944e-02	
979	4.812500e-08	7.817009e-02	7.466565e-03	-2.41058e-02	
980	4.817500e-08	7.803701e-02	7.504030e-03	-2.41154e-02	
981	4.822500e-08	7.792354e-02	7.543843e-03	-2.41259e-02	
982	4.827500e-08	7.783419e-02	7.588671e-03	-2.41396e-02	

Index   time            v(2)            v(7)            v(9)            
--------------------------------------------------------------------------------
983	4.832500e-08	7.776494e-02	7.637996e-03	-2.41556e-02	
984	4.837500e-08	7.770871e-02	7.686768e-03	-2.41669e-02	
985	4.842500e-08	7.765874e-02	7.729157e-03	-2.41657e-02	
986	4.847500e-08	7.760965e-02	7.762451e-03	-2.41491e-02	
987	4.852500e-08	7.755767e-02	7.788343e-03	-2.41208e-02	
988	4.857500e-08	7.750097e-02	7.812253e-03	-2.40902e-02	
989	4.862500e-08	7.743965e-02	7.839271e-03	-2.40658e-02	
990	4.867500e-08	7.737542e-02	7.871022e-03	-2.40504e-02	
991	4.872500e-08	7.730926e-02	7.906481e-03	-2.40427e-02	
992	4.877500e-08	7.723876e-02	7.944214e-03	-2.40411e-02	
993	4.882500e-08	7.716130e-02	7.983357e-03	-2.40451e-02	
994	4.887500e-08	7.707783e-02	8.023401e-03	-2.40552e-02	
995	4.892500e-08	7.699355e-02	8.063786e-03	-2.40714e-02	
996	4.897500e-08	7.691639e-02	8.103809e-03	-2.40922e-02	
997	4.902500e-08	7.685181e-02	8.142781e-03	-2.41152e-02	
998	4.907500e-08	7.679904e-02	8.180172e-03	-2.41373e-02	
999	4.912500e-08	7.675306e-02	8.214883e-03	-2.41544e-02	
1000	4.917500e-08	7.670871e-02	8.244324e-03	-2.41608e-02	
1001	4.922500e-08	7.666313e-02	8.266257e-03	-2.41521e-02	
1002	4.927500e-08	7.661586e-02	8.280973e-03	-2.41293e-02	
1003	4.932500e-08	7.656801e-02	8.291785e-03	-2.40985e-02	
1004	4.937500e-08	7.652131e-02	8.304149e-03	-2.40696e-02	
1005	4.942500e-08	7.647739e-02	8.322688e-03	-2.40506e-02	
1006	4.947500e-08	7.643727e-02	8.348750e-03	-2.40444e-02	
1007	4.952500e-08	7.640001e-02	8.380752e-03	-2.40485e-02	
1008	4.957500e-08	7.636148e-02	8.415971e-03	-2.40587e-02	
1009	4.962500e-08	7.631682e-02	8.451841e-03	-2.40710e-02	
1010	4.967500e-08	7.626380e-02	8.486393e-03	-2.40826e-02	
1011	4.972500e-08	7.620424e-02	8.518286e-03	-2.40919e-02	
1012	4.977500e-08	7.614355e-02	8.546844e-03	-2.40983e-02	
1013	4.982500e-08	7.608734e-02	8.572078e-03	-2.41026e-02	
1014	4.987500e-08	7.603832e-02	8.594687e-03	-2.41059e-02	
1015	4.992500e-08	7.599635e-02	8.615386e-03	-2.41089e-02	
1016	4.997500e-08	7.596027e-02	8.633959e-03	-2.41102e-02	
1017	5.000000e-08	7.594415e-02	8.641851e-03	-2.41087e-02	


