
Circuit: ************ test circuit for transmission simulation **************

Warning -- Level not specified on line "vto=0.8 kp=48u gamma=0.30 phi=0.55 lambda=0.00 cgso=0 cgdo=0 cj=0 cjsw=0 tox=18000n ld=0.0u"
Using level 1.
Warning -- Level not specified on line "vto=-0.8 kp=21u gamma=0.45 phi=0.61 lambda=0.00 cgso=0 cgdo=0 cj=0 cjsw=0 tox=18000n ld=0.0u"
Using level 1.
Doing analysis at TEMP = 300.150000 and TNOM = 300.150000

Initial Transient Solution
--------------------------

Node                                   Voltage
----                                   -------
1                                            5
2                                            0
6                                            5
3                                            5
7                                  1.24256e-09
4                                            0
8                                            5
10                                           5
5                                  1.24256e-09
11                                 1.24256e-09
13                                           5
12                                           5
14                                 3.68013e-36
9                                  1.24256e-09
p1#branch1_0                                 0
p1#branch1_1                                 0
p1#branch1_2                                 0
p1#branch1_3                                 0
p1#branch2_0                                 0
p1#branch2_1                                 0
p1#branch2_2                                 0
p1#branch2_3                                 0
vs2#branch                                   0
vs1#branch                                   0
v3#branch                                    0
vdd#branch                        -2.50473e-11

      ************ test circuit for transmission simulation **************
      Transient Analysis  Sat Aug 27 16:42:11  2005
--------------------------------------------------------------------------------
Index   time            v(5)            v(11)           v(13)           
--------------------------------------------------------------------------------
0	0.000000e+00	1.242558e-09	1.242560e-09	5.000000e+00	
1	2.000000e-12	1.094176e-09	8.465269e-10	5.000000e+00	
2	4.000000e-12	1.075948e-09	1.085197e-09	5.000000e+00	
3	8.000000e-12	1.069057e-09	1.294607e-09	5.000000e+00	
4	1.600000e-11	1.072338e-09	1.217842e-09	5.000000e+00	
5	3.200000e-11	1.069511e-09	1.260715e-09	5.000000e+00	
6	6.400000e-11	1.072043e-09	1.225602e-09	5.000000e+00	
7	1.140000e-10	1.069204e-09	1.172666e-09	5.000000e+00	
8	1.640000e-10	1.059073e-09	1.146729e-09	5.000000e+00	
9	2.140000e-10	1.047139e-09	1.165738e-09	5.000000e+00	
10	2.640000e-10	1.048967e-09	1.135722e-09	5.000000e+00	
11	3.140000e-10	1.040310e-09	1.185697e-09	5.000000e+00	
12	3.640000e-10	1.050377e-09	1.168098e-09	5.000000e+00	
13	4.140000e-10	1.028286e-09	1.136133e-09	5.000000e+00	
14	4.640000e-10	9.016662e-10	4.188359e-10	5.000000e+00	
15	5.140000e-10	9.124011e-10	4.712194e-10	5.000000e+00	
16	5.640000e-10	8.829936e-10	5.086919e-10	5.000000e+00	
17	6.140000e-10	8.327183e-10	4.437580e-10	5.000000e+00	
18	6.640000e-10	8.574216e-10	4.641943e-10	5.000000e+00	
19	7.140000e-10	8.499464e-10	4.258861e-10	5.000000e+00	
20	7.640000e-10	8.999399e-10	4.484209e-10	5.000000e+00	
21	8.140000e-10	8.347043e-10	4.117415e-10	5.000000e+00	
22	8.640000e-10	9.300193e-10	4.412387e-10	5.000000e+00	
23	9.140000e-10	8.144737e-10	5.020073e-10	5.000000e+00	
24	9.640000e-10	7.471997e-10	3.433773e-10	5.000000e+00	
25	1.014000e-09	7.820755e-10	2.445301e-10	5.000000e+00	
26	1.064000e-09	7.060358e-10	2.446387e-10	5.000000e+00	
27	1.114000e-09	7.236344e-10	1.911976e-10	5.000000e+00	
28	1.164000e-09	6.868522e-10	1.722203e-10	5.000000e+00	
29	1.214000e-09	7.015583e-10	1.598531e-10	5.000000e+00	
30	1.264000e-09	6.991816e-10	2.056618e-10	5.000000e+00	
31	1.314000e-09	6.911885e-10	1.396043e-10	5.000000e+00	
32	1.364000e-09	6.994122e-10	2.271877e-10	5.000000e+00	
33	1.414000e-09	7.088631e-10	2.260163e-10	5.000000e+00	
34	1.464000e-09	6.844518e-10	2.424654e-10	5.000000e+00	
35	1.514000e-09	6.868146e-10	1.952890e-10	5.000000e+00	
36	1.564000e-09	6.679902e-10	1.908932e-10	5.000000e+00	
37	1.614000e-09	6.704558e-10	1.735448e-10	5.000000e+00	
38	1.664000e-09	6.528655e-10	1.621972e-10	5.000000e+00	
39	1.714000e-09	6.446033e-10	1.563439e-10	5.000000e+00	
40	1.764000e-09	6.526942e-10	1.655387e-10	5.000000e+00	
41	1.814000e-09	6.455943e-10	1.437232e-10	5.000000e+00	
42	1.864000e-09	6.608860e-10	1.541292e-10	5.000000e+00	
43	1.914000e-09	6.565046e-10	1.741994e-10	5.000000e+00	
44	1.964000e-09	6.657258e-10	1.909741e-10	5.000000e+00	
45	2.014000e-09	6.594342e-10	1.952771e-10	5.000000e+00	
46	2.064000e-09	6.611767e-10	1.859604e-10	5.000000e+00	
47	2.114000e-09	6.567886e-10	1.892280e-10	5.000000e+00	
48	2.164000e-09	6.579046e-10	1.783899e-10	5.000000e+00	
49	2.214000e-09	6.527540e-10	1.808663e-10	5.000000e+00	
50	2.264000e-09	6.520793e-10	1.767637e-10	5.000000e+00	
51	2.314000e-09	6.492892e-10	1.700603e-10	5.000000e+00	
52	2.364000e-09	6.531234e-10	1.692875e-10	5.000000e+00	
53	2.414000e-09	6.523302e-10	1.710817e-10	5.000000e+00	
54	2.464000e-09	6.554783e-10	1.832458e-10	5.000000e+00	

Index   time            v(5)            v(11)           v(13)           
--------------------------------------------------------------------------------
55	2.514000e-09	6.582918e-10	1.826281e-10	5.000000e+00	
56	2.564000e-09	6.586540e-10	1.887687e-10	5.000000e+00	
57	2.614000e-09	6.592617e-10	1.845215e-10	5.000000e+00	
58	2.664000e-09	6.592515e-10	1.900287e-10	5.000000e+00	
59	2.714000e-09	6.587692e-10	1.857746e-10	5.000000e+00	
60	2.764000e-09	6.571189e-10	1.907078e-10	5.000000e+00	
61	2.814000e-09	6.559068e-10	1.805865e-10	5.000000e+00	
62	2.864000e-09	6.558852e-10	1.842706e-10	5.000000e+00	
63	2.914000e-09	6.562245e-10	1.767298e-10	5.000000e+00	
64	2.964000e-09	6.565889e-10	1.844117e-10	5.000000e+00	
65	3.014000e-09	6.571055e-10	1.801148e-10	5.000000e+00	
66	3.064000e-09	6.582658e-10	1.874383e-10	5.000000e+00	
67	3.114000e-09	6.584795e-10	1.832719e-10	5.000000e+00	
68	3.164000e-09	6.589940e-10	1.888381e-10	5.000000e+00	
69	3.214000e-09	6.593720e-10	1.850672e-10	5.000000e+00	
70	3.264000e-09	6.596067e-10	1.897821e-10	5.000000e+00	
71	3.314000e-09	6.585950e-10	1.849556e-10	5.000000e+00	
72	3.364000e-09	6.584472e-10	1.876581e-10	5.000000e+00	
73	3.414000e-09	6.578821e-10	1.829895e-10	5.000000e+00	
74	3.464000e-09	6.580431e-10	1.860299e-10	5.000000e+00	
75	3.514000e-09	6.575833e-10	1.822426e-10	5.000000e+00	
76	3.564000e-09	6.583134e-10	1.858948e-10	5.000000e+00	
77	3.614000e-09	6.580863e-10	1.831997e-10	5.000000e+00	
78	3.664000e-09	6.589189e-10	1.866099e-10	5.000000e+00	
79	3.714000e-09	6.585424e-10	1.840159e-10	5.000000e+00	
80	3.764000e-09	6.593259e-10	1.876365e-10	5.000000e+00	
81	3.814000e-09	6.587188e-10	1.849610e-10	5.000000e+00	
82	3.864000e-09	6.591204e-10	1.877816e-10	5.000000e+00	
83	3.914000e-09	6.583825e-10	1.843580e-10	5.000000e+00	
84	3.964000e-09	6.588492e-10	1.870553e-10	5.000000e+00	
85	4.014000e-09	6.582143e-10	1.834050e-10	5.000000e+00	
86	4.064000e-09	6.585629e-10	1.865163e-10	5.000000e+00	
87	4.114000e-09	6.580984e-10	1.833437e-10	5.000000e+00	
88	4.164000e-09	6.585994e-10	1.866086e-10	5.000000e+00	
89	4.214000e-09	6.582702e-10	1.834018e-10	5.000000e+00	
90	4.264000e-09	6.587816e-10	1.868196e-10	5.000000e+00	
91	4.314000e-09	6.585146e-10	1.838239e-10	5.000000e+00	
92	4.364000e-09	6.588373e-10	1.872612e-10	5.000000e+00	
93	4.414000e-09	6.586262e-10	1.841481e-10	5.000000e+00	
94	4.464000e-09	6.586962e-10	1.871789e-10	5.000000e+00	
95	4.514000e-09	6.584933e-10	1.839196e-10	5.000000e+00	
96	4.564000e-09	6.585987e-10	1.868840e-10	5.000000e+00	
97	4.614000e-09	6.583725e-10	1.837188e-10	5.000000e+00	
98	4.664000e-09	6.585320e-10	1.866765e-10	5.000000e+00	
99	4.714000e-09	6.583281e-10	1.835605e-10	5.000000e+00	
100	4.764000e-09	6.586071e-10	1.866149e-10	5.000000e+00	
101	4.814000e-09	6.583296e-10	1.837543e-10	5.000000e+00	
102	4.864000e-09	6.586960e-10	1.867702e-10	5.000000e+00	
103	4.914000e-09	6.584194e-10	1.839920e-10	5.000000e+00	
104	4.964000e-09	6.587216e-10	1.868159e-10	5.000000e+00	
105	5.014000e-09	6.584265e-10	1.840405e-10	5.000000e+00	
106	5.064000e-09	6.586947e-10	1.867417e-10	5.000000e+00	
107	5.114000e-09	6.583881e-10	1.840442e-10	5.000000e+00	
108	5.164000e-09	6.586349e-10	1.866386e-10	5.000000e+00	
109	5.214000e-09	6.583293e-10	1.839410e-10	5.000000e+00	
110	5.264000e-09	6.586100e-10	1.865434e-10	5.000000e+00	
111	5.314000e-09	6.583454e-10	1.839198e-10	5.000000e+00	
112	5.364000e-09	6.586183e-10	1.865329e-10	5.000000e+00	

Index   time            v(5)            v(11)           v(13)           
--------------------------------------------------------------------------------
113	5.414000e-09	6.583870e-10	1.839857e-10	5.000000e+00	
114	5.464000e-09	6.586396e-10	1.865866e-10	5.000000e+00	
115	5.514000e-09	6.584155e-10	1.840640e-10	5.000000e+00	
116	5.564000e-09	6.586354e-10	1.866064e-10	5.000000e+00	
117	5.614000e-09	6.584231e-10	1.840897e-10	5.000000e+00	
118	5.664000e-09	6.586203e-10	1.865896e-10	5.000000e+00	
119	5.714000e-09	6.584061e-10	1.840620e-10	5.000000e+00	
120	5.764000e-09	6.586030e-10	1.865427e-10	5.000000e+00	
121	5.814000e-09	6.583952e-10	1.840329e-10	5.000000e+00	
122	5.864000e-09	6.585942e-10	1.865073e-10	5.000000e+00	
123	5.914000e-09	6.583962e-10	1.840479e-10	5.000000e+00	
124	5.964000e-09	6.585996e-10	1.864944e-10	5.000000e+00	
125	6.014000e-09	6.584115e-10	1.840854e-10	5.000000e+00	
126	6.064000e-09	6.586091e-10	1.864968e-10	5.000000e+00	
127	6.114000e-09	6.584235e-10	1.841166e-10	5.000000e+00	
128	6.164000e-09	6.586087e-10	1.864881e-10	5.000000e+00	
129	6.214000e-09	6.584201e-10	1.841373e-10	5.000000e+00	
130	6.264000e-09	6.586027e-10	1.864622e-10	5.000000e+00	
131	6.314000e-09	6.584121e-10	1.841406e-10	5.000000e+00	
132	6.364000e-09	6.585965e-10	1.864350e-10	5.000000e+00	
133	6.414000e-09	6.584129e-10	1.841338e-10	5.000000e+00	
134	6.464000e-09	6.585909e-10	1.864091e-10	5.000000e+00	
135	6.514000e-09	6.584161e-10	1.841596e-10	5.000000e+00	
136	6.564000e-09	6.585937e-10	1.863954e-10	5.000000e+00	
137	6.614000e-09	6.584210e-10	1.841815e-10	5.000000e+00	
138	6.664000e-09	6.585962e-10	1.863911e-10	5.000000e+00	
139	6.714000e-09	6.584295e-10	1.842027e-10	5.000000e+00	
140	6.764000e-09	6.585974e-10	1.863719e-10	5.000000e+00	
141	6.814000e-09	6.584299e-10	1.842167e-10	5.000000e+00	
142	6.864000e-09	6.585947e-10	1.863649e-10	5.000000e+00	
143	6.914000e-09	6.584289e-10	1.842173e-10	5.000000e+00	
144	6.964000e-09	6.585846e-10	1.863351e-10	5.000000e+00	
145	7.014000e-09	6.584230e-10	1.842258e-10	5.000000e+00	
146	7.064000e-09	6.585837e-10	1.863148e-10	5.000000e+00	
147	7.114000e-09	6.584256e-10	1.842319e-10	5.000000e+00	
148	7.164000e-09	6.585834e-10	1.863040e-10	5.000000e+00	
149	7.214000e-09	6.584283e-10	1.842529e-10	5.000000e+00	
150	7.264000e-09	6.585814e-10	1.862996e-10	5.000000e+00	
151	7.314000e-09	6.584328e-10	1.842637e-10	5.000000e+00	
152	7.364000e-09	6.585832e-10	1.862829e-10	5.000000e+00	
153	7.414000e-09	6.584318e-10	1.842709e-10	5.000000e+00	
154	7.464000e-09	6.585787e-10	1.862623e-10	5.000000e+00	
155	7.514000e-09	6.584324e-10	1.842806e-10	5.000000e+00	
156	7.564000e-09	6.585799e-10	1.862516e-10	5.000000e+00	
157	7.614000e-09	6.584352e-10	1.842873e-10	5.000000e+00	
158	7.664000e-09	6.585751e-10	1.862390e-10	5.000000e+00	
159	7.714000e-09	6.584381e-10	1.843040e-10	5.000000e+00	
160	7.764000e-09	6.585780e-10	1.862210e-10	5.000000e+00	
161	7.814000e-09	6.584380e-10	1.843183e-10	5.000000e+00	
162	7.864000e-09	6.585748e-10	1.862146e-10	5.000000e+00	
163	7.914000e-09	6.584383e-10	1.843240e-10	5.000000e+00	
164	7.964000e-09	6.585741e-10	1.862028e-10	5.000000e+00	
165	8.014000e-09	6.584408e-10	1.843293e-10	5.000000e+00	
166	8.064000e-09	6.585737e-10	1.861955e-10	5.000000e+00	
167	8.114000e-09	6.584411e-10	1.843425e-10	5.000000e+00	
168	8.164000e-09	6.585740e-10	1.861782e-10	5.000000e+00	
169	8.214000e-09	6.584428e-10	1.843547e-10	5.000000e+00	
170	8.264000e-09	6.585713e-10	1.861655e-10	5.000000e+00	

Index   time            v(5)            v(11)           v(13)           
--------------------------------------------------------------------------------
171	8.314000e-09	6.584437e-10	1.843604e-10	5.000000e+00	
172	8.364000e-09	6.585711e-10	1.861542e-10	5.000000e+00	
173	8.414000e-09	6.584452e-10	1.843698e-10	5.000000e+00	
174	8.464000e-09	6.585696e-10	1.861402e-10	5.000000e+00	
175	8.514000e-09	6.584436e-10	1.843764e-10	5.000000e+00	
176	8.564000e-09	6.585688e-10	1.861255e-10	5.000000e+00	
177	8.614000e-09	6.584458e-10	1.843787e-10	5.000000e+00	
178	8.664000e-09	6.585696e-10	1.861242e-10	5.000000e+00	
179	8.714000e-09	6.584481e-10	1.843963e-10	5.000000e+00	
180	8.764000e-09	6.585690e-10	1.861091e-10	5.000000e+00	
181	8.814000e-09	6.584473e-10	1.843997e-10	5.000000e+00	
182	8.864000e-09	6.585669e-10	1.860951e-10	5.000000e+00	
183	8.914000e-09	6.584477e-10	1.844104e-10	5.000000e+00	
184	8.964000e-09	6.585639e-10	1.860849e-10	5.000000e+00	
185	9.014000e-09	6.584509e-10	1.844212e-10	5.000000e+00	
186	9.064000e-09	6.585606e-10	1.860720e-10	5.000000e+00	
187	9.114000e-09	6.584471e-10	1.844307e-10	5.000000e+00	
188	9.164000e-09	6.585649e-10	1.860598e-10	5.000000e+00	
189	9.214000e-09	6.584512e-10	1.844335e-10	5.000000e+00	
190	9.264000e-09	6.585645e-10	1.860517e-10	5.000000e+00	
191	9.314000e-09	6.584522e-10	1.844481e-10	5.000000e+00	
192	9.364000e-09	6.585646e-10	1.860393e-10	5.000000e+00	
193	9.414000e-09	6.584522e-10	1.844463e-10	5.000000e+00	
194	9.464000e-09	6.585614e-10	1.860301e-10	5.000000e+00	
195	9.514000e-09	6.584541e-10	1.844612e-10	5.000000e+00	
196	9.564000e-09	6.585645e-10	1.860179e-10	5.000000e+00	
197	9.614000e-09	6.584560e-10	1.844664e-10	5.000000e+00	
198	9.664000e-09	6.585628e-10	1.860090e-10	5.000000e+00	
199	9.714000e-09	6.584564e-10	1.844674e-10	5.000000e+00	
200	9.764000e-09	6.585569e-10	1.860019e-10	5.000000e+00	
201	9.814000e-09	6.584545e-10	1.844764e-10	5.000000e+00	
202	9.864000e-09	6.585574e-10	1.859862e-10	5.000000e+00	
203	9.914000e-09	6.584530e-10	1.844837e-10	5.000000e+00	
204	9.964000e-09	6.585591e-10	1.859743e-10	5.000000e+00	
205	1.001400e-08	6.584571e-10	1.844994e-10	5.000000e+00	
206	1.006400e-08	6.585574e-10	1.859715e-10	5.000000e+00	
207	1.011400e-08	6.584592e-10	1.844939e-10	5.000000e+00	
208	1.016400e-08	6.585566e-10	1.859562e-10	5.000000e+00	
209	1.021400e-08	6.584553e-10	1.845070e-10	5.000000e+00	
210	1.026400e-08	6.585574e-10	1.859442e-10	5.000000e+00	
211	1.031400e-08	6.584539e-10	1.845058e-10	5.000000e+00	
212	1.036400e-08	6.585537e-10	1.859334e-10	5.000000e+00	
213	1.041400e-08	6.584531e-10	1.845199e-10	5.000000e+00	
214	1.046400e-08	6.585672e-10	1.859006e-10	5.000000e+00	
215	1.051400e-08	6.584454e-10	1.845138e-10	5.000000e+00	
216	1.056400e-08	6.585676e-10	1.859047e-10	5.000000e+00	
217	1.061400e-08	6.584583e-10	1.845187e-10	5.000000e+00	
218	1.066400e-08	6.585629e-10	1.858942e-10	5.000000e+00	
219	1.071400e-08	6.584696e-10	1.845323e-10	5.000000e+00	
220	1.076400e-08	6.585537e-10	1.858920e-10	5.000000e+00	
221	1.081400e-08	6.584787e-10	1.845483e-10	5.000000e+00	
222	1.086400e-08	6.585650e-10	1.858823e-10	5.000000e+00	
223	1.091400e-08	6.584628e-10	1.845423e-10	5.000000e+00	
224	1.096400e-08	6.585706e-10	1.858695e-10	5.000000e+00	
225	1.101400e-08	6.584693e-10	1.845193e-10	5.000000e+00	
226	1.106400e-08	6.585657e-10	1.858645e-10	5.000000e+00	
227	1.111400e-08	6.584671e-10	1.845364e-10	5.000000e+00	
228	1.116400e-08	6.585616e-10	1.858541e-10	5.000000e+00	

Index   time            v(5)            v(11)           v(13)           
--------------------------------------------------------------------------------
229	1.121400e-08	6.584744e-10	1.845460e-10	5.000000e+00	
230	1.126400e-08	6.585555e-10	1.858430e-10	5.000000e+00	
231	1.131400e-08	6.584855e-10	1.845491e-10	5.000000e+00	
232	1.136400e-08	6.585566e-10	1.858384e-10	5.000000e+00	
233	1.141400e-08	6.584859e-10	1.845643e-10	5.000000e+00	
234	1.146400e-08	6.585598e-10	1.858394e-10	5.000000e+00	
235	1.151400e-08	6.584842e-10	1.845641e-10	5.000000e+00	
236	1.156400e-08	6.585636e-10	1.858225e-10	5.000000e+00	
237	1.161400e-08	6.584797e-10	1.845755e-10	5.000000e+00	
238	1.166400e-08	6.585651e-10	1.858173e-10	5.000000e+00	
239	1.171400e-08	6.584823e-10	1.845758e-10	5.000000e+00	
240	1.176400e-08	6.585621e-10	1.858053e-10	5.000000e+00	
241	1.181400e-08	6.584817e-10	1.845845e-10	5.000000e+00	
242	1.186400e-08	6.585652e-10	1.857886e-10	5.000000e+00	
243	1.191400e-08	6.584792e-10	1.845934e-10	5.000000e+00	
244	1.196400e-08	6.585642e-10	1.857815e-10	5.000000e+00	
245	1.201400e-08	6.584815e-10	1.845947e-10	5.000000e+00	
246	1.206400e-08	6.585676e-10	1.857675e-10	5.000000e+00	
247	1.211400e-08	6.584788e-10	1.845975e-10	5.000000e+00	
248	1.216400e-08	6.585649e-10	1.857635e-10	5.000000e+00	
249	1.221400e-08	6.584827e-10	1.845972e-10	5.000000e+00	
250	1.226400e-08	6.585658e-10	1.857549e-10	5.000000e+00	
251	1.231400e-08	6.584832e-10	1.846070e-10	5.000000e+00	
252	1.236400e-08	6.585654e-10	1.857482e-10	5.000000e+00	
253	1.241400e-08	6.584882e-10	1.846203e-10	5.000000e+00	
254	1.246400e-08	6.585658e-10	1.857403e-10	5.000000e+00	
255	1.251400e-08	6.584876e-10	1.846178e-10	5.000000e+00	
256	1.256400e-08	6.585621e-10	1.857314e-10	5.000000e+00	
257	1.261400e-08	6.584870e-10	1.846202e-10	5.000000e+00	
258	1.266400e-08	6.585597e-10	1.857281e-10	5.000000e+00	
259	1.271400e-08	6.584868e-10	1.846173e-10	5.000000e+00	
260	1.276400e-08	6.585624e-10	1.857124e-10	5.000000e+00	
261	1.281400e-08	6.584866e-10	1.846334e-10	5.000000e+00	
262	1.286400e-08	6.585619e-10	1.857057e-10	5.000000e+00	
263	1.291400e-08	6.584852e-10	1.846364e-10	5.000000e+00	
264	1.296400e-08	6.585605e-10	1.857039e-10	5.000000e+00	
265	1.301400e-08	6.584882e-10	1.846359e-10	5.000000e+00	
266	1.306400e-08	6.585576e-10	1.856957e-10	5.000000e+00	
267	1.311400e-08	6.584871e-10	1.846434e-10	5.000000e+00	
268	1.316400e-08	6.585618e-10	1.856884e-10	5.000000e+00	
269	1.321400e-08	6.584879e-10	1.846462e-10	5.000000e+00	
270	1.326400e-08	6.585596e-10	1.856822e-10	5.000000e+00	
271	1.331400e-08	6.584865e-10	1.846515e-10	5.000000e+00	
272	1.336400e-08	6.585559e-10	1.856709e-10	5.000000e+00	
273	1.341400e-08	6.584866e-10	1.846538e-10	5.000000e+00	
274	1.346400e-08	6.585536e-10	1.856639e-10	5.000000e+00	
275	1.351400e-08	6.584883e-10	1.846582e-10	5.000000e+00	
276	1.356400e-08	6.585559e-10	1.856544e-10	5.000000e+00	
277	1.361400e-08	6.584878e-10	1.846637e-10	5.000000e+00	
278	1.366400e-08	6.585591e-10	1.856484e-10	5.000000e+00	
279	1.371400e-08	6.584841e-10	1.846649e-10	5.000000e+00	
280	1.376400e-08	6.585580e-10	1.856392e-10	5.000000e+00	
281	1.381400e-08	6.584870e-10	1.846657e-10	5.000000e+00	
282	1.386400e-08	6.585558e-10	1.856405e-10	5.000000e+00	
283	1.391400e-08	6.584885e-10	1.846762e-10	5.000000e+00	
284	1.396400e-08	6.585565e-10	1.856278e-10	5.000000e+00	
285	1.401400e-08	6.584870e-10	1.846746e-10	5.000000e+00	
286	1.406400e-08	6.585543e-10	1.856189e-10	5.000000e+00	

Index   time            v(5)            v(11)           v(13)           
--------------------------------------------------------------------------------
287	1.411400e-08	6.584894e-10	1.846832e-10	5.000000e+00	
288	1.416400e-08	6.585572e-10	1.856196e-10	5.000000e+00	
289	1.421400e-08	6.584940e-10	1.846864e-10	5.000000e+00	
290	1.426400e-08	6.585528e-10	1.856145e-10	5.000000e+00	
291	1.431400e-08	6.584913e-10	1.846924e-10	5.000000e+00	
292	1.436400e-08	6.585564e-10	1.856024e-10	5.000000e+00	
293	1.441400e-08	6.584896e-10	1.846913e-10	5.000000e+00	
294	1.446400e-08	6.585540e-10	1.855972e-10	5.000000e+00	
295	1.451400e-08	6.584891e-10	1.846899e-10	5.000000e+00	
296	1.456400e-08	6.585537e-10	1.855807e-10	5.000000e+00	
297	1.461400e-08	6.584913e-10	1.846961e-10	5.000000e+00	
298	1.466400e-08	6.585512e-10	1.855848e-10	5.000000e+00	
299	1.471400e-08	6.584932e-10	1.847067e-10	5.000000e+00	
300	1.476400e-08	6.585515e-10	1.855825e-10	5.000000e+00	
301	1.481400e-08	6.584923e-10	1.847138e-10	5.000000e+00	
302	1.486400e-08	6.585538e-10	1.855730e-10	5.000000e+00	
303	1.491400e-08	6.584895e-10	1.847078e-10	5.000000e+00	
304	1.496400e-08	6.585525e-10	1.855600e-10	5.000000e+00	
305	1.501400e-08	6.584895e-10	1.847125e-10	5.000000e+00	
306	1.506400e-08	6.585521e-10	1.855549e-10	5.000000e+00	
307	1.511400e-08	6.584920e-10	1.847157e-10	5.000000e+00	
308	1.516400e-08	6.585515e-10	1.855456e-10	5.000000e+00	
309	1.521400e-08	6.584934e-10	1.847170e-10	5.000000e+00	
310	1.526400e-08	6.585523e-10	1.855411e-10	5.000000e+00	
311	1.531400e-08	6.584945e-10	1.847218e-10	5.000000e+00	
312	1.536400e-08	6.585530e-10	1.855317e-10	5.000000e+00	
313	1.541400e-08	6.584926e-10	1.847178e-10	5.000000e+00	
314	1.546400e-08	6.585490e-10	1.855348e-10	5.000000e+00	
315	1.551400e-08	6.584958e-10	1.847292e-10	5.000000e+00	
316	1.556400e-08	6.585526e-10	1.855285e-10	5.000000e+00	
317	1.561400e-08	6.584931e-10	1.847306e-10	5.000000e+00	
318	1.566400e-08	6.585510e-10	1.855206e-10	5.000000e+00	
319	1.571400e-08	6.584965e-10	1.847251e-10	5.000000e+00	
320	1.576400e-08	6.585463e-10	1.855103e-10	5.000000e+00	
321	1.581400e-08	6.584926e-10	1.847359e-10	5.000000e+00	
322	1.586400e-08	6.585481e-10	1.855126e-10	5.000000e+00	
323	1.590000e-08	6.583398e-10	1.843513e-10	5.000000e+00	
324	1.590500e-08	1.905064e-05	3.539548e-09	5.000000e+00	
325	1.591500e-08	2.953776e-05	9.515119e-11	5.000000e+00	
326	1.593500e-08	-5.491204e-05	-8.052146e-09	5.000000e+00	
327	1.597500e-08	-1.869916e-02	-2.754280e-05	5.000000e+00	
328	1.602500e-08	-1.018972e-01	1.180725e-02	5.000005e+00	
329	1.607500e-08	-2.573277e-01	7.328848e-02	5.000021e+00	
330	1.610000e-08	-3.570932e-01	1.238820e-01	5.000024e+00	
331	1.610500e-08	-3.678443e-01	1.382730e-01	5.000029e+00	
332	1.611500e-08	-3.724864e-01	1.690435e-01	5.000036e+00	
333	1.613500e-08	-3.613074e-01	2.300007e-01	5.000034e+00	
334	1.616219e-08	-3.456630e-01	3.518435e-01	5.000065e+00	
335	1.620758e-08	-2.859666e-01	4.074936e-01	4.999975e+00	
336	1.625062e-08	-2.384676e-01	5.173064e-01	5.000075e+00	
337	1.630062e-08	-1.993107e-01	6.798920e-01	5.000014e+00	
338	1.635062e-08	-1.457439e-01	8.465647e-01	4.999690e+00	
339	1.640062e-08	-1.002549e-01	1.001155e+00	4.993470e+00	
340	1.645062e-08	-6.338121e-02	8.410132e-01	4.998311e+00	
341	1.650062e-08	-1.370577e-03	3.407718e-01	5.000528e+00	
342	1.655062e-08	7.798812e-02	-3.436210e-01	4.999299e+00	
343	1.659236e-08	1.536421e-01	-5.172157e-01	5.000434e+00	
344	1.662543e-08	1.642165e-01	-5.066957e-01	4.999624e+00	

Index   time            v(5)            v(11)           v(13)           
--------------------------------------------------------------------------------
345	1.665917e-08	1.482694e-01	-5.398242e-01	5.000253e+00	
346	1.669062e-08	1.365982e-01	-5.349117e-01	4.999772e+00	
347	1.674062e-08	2.167148e-01	-5.321474e-01	5.000172e+00	
348	1.679062e-08	3.990640e-01	-5.153477e-01	4.999835e+00	
349	1.684062e-08	6.185886e-01	-5.198786e-01	5.000126e+00	
350	1.689062e-08	7.842786e-01	-4.860788e-01	4.999878e+00	
351	1.694062e-08	8.286019e-01	-4.475251e-01	5.000073e+00	
352	1.699062e-08	5.570057e-01	-3.915734e-01	4.999905e+00	
353	1.704062e-08	2.975667e-01	-3.610972e-01	5.000067e+00	
354	1.708808e-08	3.180668e-01	-3.698372e-01	4.999930e+00	
355	1.713121e-08	3.652460e-01	-3.858443e-01	5.000048e+00	
356	1.717747e-08	4.060255e-01	-3.659781e-01	4.999940e+00	
357	1.722747e-08	3.924980e-01	-3.429914e-01	5.000028e+00	
358	1.727747e-08	3.402894e-01	-3.070922e-01	4.999943e+00	
359	1.732747e-08	3.563575e-01	-2.472990e-01	5.000021e+00	
360	1.737747e-08	5.297503e-01	-2.084839e-01	4.999992e+00	
361	1.742747e-08	7.650612e-01	-2.229063e-01	5.000010e+00	
362	1.747747e-08	9.635038e-01	-3.132285e-01	4.999949e+00	
363	1.752747e-08	1.094925e+00	-3.420771e-01	5.000007e+00	
364	1.757747e-08	1.190595e+00	-2.790165e-01	4.999984e+00	
365	1.762747e-08	1.303647e+00	-2.313212e-01	5.000016e+00	
366	1.767747e-08	1.542159e+00	-2.258468e-01	4.999999e+00	
367	1.772747e-08	1.817208e+00	-2.617876e-01	5.000007e+00	
368	1.777747e-08	1.926292e+00	-3.187129e-01	4.999973e+00	
369	1.782747e-08	1.891234e+00	-3.415770e-01	4.999996e+00	
370	1.787747e-08	1.814614e+00	-3.043149e-01	4.999992e+00	
371	1.792747e-08	1.782999e+00	-2.603664e-01	5.000010e+00	
372	1.797747e-08	1.856593e+00	-2.517008e-01	5.000001e+00	
373	1.802747e-08	1.980058e+00	-2.793041e-01	4.999996e+00	
374	1.807747e-08	2.041232e+00	-2.963400e-01	4.999982e+00	
375	1.812747e-08	2.042300e+00	-2.753305e-01	4.999990e+00	
376	1.817747e-08	2.076657e+00	-1.878623e-01	5.000013e+00	
377	1.822747e-08	2.209155e+00	-1.028814e-01	5.000011e+00	
378	1.827747e-08	2.434270e+00	-7.420205e-02	5.000010e+00	
379	1.832747e-08	2.655227e+00	-8.455386e-02	4.999998e+00	
380	1.837747e-08	2.794034e+00	-1.025965e-01	4.999991e+00	
381	1.842747e-08	2.875724e+00	-9.118331e-02	4.999997e+00	
382	1.847747e-08	2.982779e+00	-5.214346e-02	5.000008e+00	
383	1.852747e-08	3.136864e+00	-2.399681e-02	5.000011e+00	
384	1.857747e-08	3.304086e+00	-4.703173e-02	4.999999e+00	
385	1.862747e-08	3.416765e+00	-9.455938e-02	4.999992e+00	
386	1.867747e-08	3.454420e+00	-1.270049e-01	4.999987e+00	
387	1.872747e-08	3.446116e+00	-1.170324e-01	5.000000e+00	
388	1.877747e-08	3.464968e+00	-8.893369e-02	5.000001e+00	
389	1.882747e-08	3.530262e+00	-7.131383e-02	5.000006e+00	
390	1.887747e-08	3.611820e+00	-8.210056e-02	4.999994e+00	
391	1.892747e-08	3.665176e+00	-9.783761e-02	4.999998e+00	
392	1.897747e-08	3.688741e+00	-9.570700e-02	4.999993e+00	
393	1.902747e-08	3.718325e+00	-6.792888e-02	5.000006e+00	
394	1.907747e-08	3.789783e+00	-3.737634e-02	5.000002e+00	
395	1.912747e-08	3.893598e+00	-2.105025e-02	5.000008e+00	
396	1.917747e-08	3.996576e+00	-2.413488e-02	4.999997e+00	
397	1.922747e-08	4.075042e+00	-3.344949e-02	5.000001e+00	
398	1.927747e-08	4.131040e+00	-3.112179e-02	4.999997e+00	
399	1.932747e-08	4.184447e+00	-1.861691e-02	5.000004e+00	
400	1.937747e-08	4.249589e+00	-7.400222e-03	5.000001e+00	
401	1.942747e-08	4.318523e+00	-9.560842e-03	5.000002e+00	
402	1.947747e-08	4.372140e+00	-2.164288e-02	4.999996e+00	

Index   time            v(5)            v(11)           v(13)           
--------------------------------------------------------------------------------
403	1.952747e-08	4.400947e+00	-3.339578e-02	4.999998e+00	
404	1.957747e-08	4.416203e+00	-3.395779e-02	4.999998e+00	
405	1.962747e-08	4.435482e+00	-2.816724e-02	5.000001e+00	
406	1.967747e-08	4.465105e+00	-2.314539e-02	5.000000e+00	
407	1.972747e-08	4.497104e+00	-2.461531e-02	5.000000e+00	
408	1.977747e-08	4.522495e+00	-2.888564e-02	4.999999e+00	
409	1.982747e-08	4.541345e+00	-3.017141e-02	4.999999e+00	
410	1.987747e-08	4.562031e+00	-2.537125e-02	5.000000e+00	
411	1.992747e-08	4.589401e+00	-1.807863e-02	5.000001e+00	
412	1.997747e-08	4.622886e+00	-1.318878e-02	5.000001e+00	
413	2.002747e-08	4.655848e+00	-1.257133e-02	5.000000e+00	
414	2.007747e-08	4.683807e+00	-1.393316e-02	5.000000e+00	
415	2.012747e-08	4.705909e+00	-1.351370e-02	5.000000e+00	
416	2.017747e-08	4.726723e+00	-1.103571e-02	5.000000e+00	
417	2.022747e-08	4.747912e+00	-7.975998e-03	5.000001e+00	
418	2.027747e-08	4.768758e+00	-7.700487e-03	5.000000e+00	
419	2.032747e-08	4.785545e+00	-9.410592e-03	5.000000e+00	
420	2.037747e-08	4.797981e+00	-1.183680e-02	4.999999e+00	
421	2.042747e-08	4.807629e+00	-1.228105e-02	5.000000e+00	
422	2.047747e-08	4.817591e+00	-1.159562e-02	5.000000e+00	
423	2.052747e-08	4.827961e+00	-1.030760e-02	5.000001e+00	
424	2.057747e-08	4.838444e+00	-1.035257e-02	4.999999e+00	
425	2.062747e-08	4.847630e+00	-1.074684e-02	5.000000e+00	
426	2.067747e-08	4.856223e+00	-1.109345e-02	4.999999e+00	
427	2.072747e-08	4.864595e+00	-1.014872e-02	5.000001e+00	
428	2.077747e-08	4.873762e+00	-8.835217e-03	5.000000e+00	
429	2.082747e-08	4.883118e+00	-7.492497e-03	5.000001e+00	
430	2.087747e-08	4.892225e+00	-7.101509e-03	4.999999e+00	
431	2.092747e-08	4.900165e+00	-6.950886e-03	5.000001e+00	
432	2.097747e-08	4.907339e+00	-6.865940e-03	4.999999e+00	
433	2.102747e-08	4.913910e+00	-6.249584e-03	5.000001e+00	
434	2.107747e-08	4.920215e+00	-5.687600e-03	5.000000e+00	
435	2.112747e-08	4.925838e+00	-5.313088e-03	5.000001e+00	
436	2.117747e-08	4.930760e+00	-5.446960e-03	4.999999e+00	
437	2.122747e-08	4.934946e+00	-5.606129e-03	5.000000e+00	
438	2.127747e-08	4.938783e+00	-5.693185e-03	4.999999e+00	
439	2.132747e-08	4.942344e+00	-5.438842e-03	5.000000e+00	
440	2.137747e-08	4.945767e+00	-5.204993e-03	5.000000e+00	
441	2.142747e-08	4.948940e+00	-4.968790e-03	5.000000e+00	
442	2.147747e-08	4.951946e+00	-4.951564e-03	5.000000e+00	
443	2.152747e-08	4.954795e+00	-4.806300e-03	5.000000e+00	
444	2.157747e-08	4.957628e+00	-4.669828e-03	5.000000e+00	
445	2.162747e-08	4.960385e+00	-4.293822e-03	5.000000e+00	
446	2.167747e-08	4.963047e+00	-4.073810e-03	5.000000e+00	
447	2.172747e-08	4.965477e+00	-3.777190e-03	5.000000e+00	
448	2.177747e-08	4.967754e+00	-3.731920e-03	5.000000e+00	
449	2.182747e-08	4.969857e+00	-3.515156e-03	5.000000e+00	
450	2.187747e-08	4.971862e+00	-3.468813e-03	5.000000e+00	
451	2.192747e-08	4.973650e+00	-3.205641e-03	5.000000e+00	
452	2.197747e-08	4.975276e+00	-3.192727e-03	5.000000e+00	
453	2.202747e-08	4.976689e+00	-3.000290e-03	5.000000e+00	
454	2.207747e-08	4.978026e+00	-3.071717e-03	5.000000e+00	
455	2.212747e-08	4.979241e+00	-2.895364e-03	5.000000e+00	
456	2.217747e-08	4.980416e+00	-2.946001e-03	5.000000e+00	
457	2.222747e-08	4.981465e+00	-2.730385e-03	5.000000e+00	
458	2.227747e-08	4.982461e+00	-2.774559e-03	5.000000e+00	
459	2.232747e-08	4.983363e+00	-2.569364e-03	5.000000e+00	
460	2.237747e-08	4.984265e+00	-2.628526e-03	5.000000e+00	

Index   time            v(5)            v(11)           v(13)           
--------------------------------------------------------------------------------
461	2.242747e-08	4.985119e+00	-2.421967e-03	5.000000e+00	
462	2.247747e-08	4.985958e+00	-2.470044e-03	5.000000e+00	
463	2.252747e-08	4.986710e+00	-2.258586e-03	5.000000e+00	
464	2.257747e-08	4.987417e+00	-2.312922e-03	5.000000e+00	
465	2.262747e-08	4.988063e+00	-2.119710e-03	5.000000e+00	
466	2.267747e-08	4.988687e+00	-2.190714e-03	5.000000e+00	
467	2.272747e-08	4.989263e+00	-2.011618e-03	5.000000e+00	
468	2.277747e-08	4.989795e+00	-2.090644e-03	5.000000e+00	
469	2.282747e-08	4.990270e+00	-1.920222e-03	5.000000e+00	
470	2.287747e-08	4.990701e+00	-2.006050e-03	5.000000e+00	
471	2.292747e-08	4.991102e+00	-1.843491e-03	5.000000e+00	
472	2.297747e-08	4.991479e+00	-1.935861e-03	5.000000e+00	
473	2.302747e-08	4.991839e+00	-1.777569e-03	5.000000e+00	
474	2.307747e-08	4.992165e+00	-1.872732e-03	5.000000e+00	
475	2.312747e-08	4.992471e+00	-1.713867e-03	5.000000e+00	
476	2.317747e-08	4.992747e+00	-1.809729e-03	5.000000e+00	
477	2.322747e-08	4.993021e+00	-1.650512e-03	5.000000e+00	
478	2.327747e-08	4.993275e+00	-1.751098e-03	5.000000e+00	
479	2.332747e-08	4.993525e+00	-1.594002e-03	5.000000e+00	
480	2.337747e-08	4.993744e+00	-1.700237e-03	5.000000e+00	
481	2.342747e-08	4.993957e+00	-1.543143e-03	5.000000e+00	
482	2.347747e-08	4.994143e+00	-1.653153e-03	5.000000e+00	
483	2.352747e-08	4.994331e+00	-1.496746e-03	5.000000e+00	
484	2.357747e-08	4.994495e+00	-1.613360e-03	5.000000e+00	
485	2.362747e-08	4.994659e+00	-1.459528e-03	5.000000e+00	
486	2.367747e-08	4.994796e+00	-1.581701e-03	5.000000e+00	
487	2.372747e-08	4.994934e+00	-1.427599e-03	5.000000e+00	
488	2.377747e-08	4.995049e+00	-1.552594e-03	5.000000e+00	
489	2.382747e-08	4.995171e+00	-1.398337e-03	5.000000e+00	
490	2.387747e-08	4.995272e+00	-1.527123e-03	5.000000e+00	
491	2.392747e-08	4.995380e+00	-1.373748e-03	5.000000e+00	
492	2.397747e-08	4.995464e+00	-1.505164e-03	5.000000e+00	
493	2.402747e-08	4.995559e+00	-1.350901e-03	5.000000e+00	
494	2.407747e-08	4.995632e+00	-1.483578e-03	5.000000e+00	
495	2.412747e-08	4.995718e+00	-1.329503e-03	5.000000e+00	
496	2.417747e-08	4.995781e+00	-1.464635e-03	5.000000e+00	
497	2.422747e-08	4.995858e+00	-1.311593e-03	5.000000e+00	
498	2.427747e-08	4.995910e+00	-1.448215e-03	5.000000e+00	
499	2.432747e-08	4.995978e+00	-1.295417e-03	5.000000e+00	
500	2.437747e-08	4.996022e+00	-1.433069e-03	5.000000e+00	
501	2.442747e-08	4.996083e+00	-1.281099e-03	5.000000e+00	
502	2.447747e-08	4.996120e+00	-1.420455e-03	5.000000e+00	
503	2.452747e-08	4.996174e+00	-1.269501e-03	5.000000e+00	
504	2.457747e-08	4.996203e+00	-1.409941e-03	5.000000e+00	
505	2.462747e-08	4.996251e+00	-1.259166e-03	5.000000e+00	
506	2.467747e-08	4.996275e+00	-1.400126e-03	5.000000e+00	
507	2.472747e-08	4.996319e+00	-1.249752e-03	5.000000e+00	
508	2.477747e-08	4.996338e+00	-1.391633e-03	5.000000e+00	
509	2.482747e-08	4.996378e+00	-1.241779e-03	5.000000e+00	
510	2.487747e-08	4.996392e+00	-1.384189e-03	5.000000e+00	
511	2.492747e-08	4.996429e+00	-1.234474e-03	5.000000e+00	
512	2.497747e-08	4.996440e+00	-1.377406e-03	5.000000e+00	
513	2.502747e-08	4.996474e+00	-1.227891e-03	5.000000e+00	
514	2.507747e-08	4.996482e+00	-1.371530e-03	5.000000e+00	
515	2.512747e-08	4.996513e+00	-1.222205e-03	5.000000e+00	
516	2.517747e-08	4.996518e+00	-1.366429e-03	5.000000e+00	
517	2.522747e-08	4.996547e+00	-1.217181e-03	5.000000e+00	
518	2.527747e-08	4.996550e+00	-1.361780e-03	5.000000e+00	

Index   time            v(5)            v(11)           v(13)           
--------------------------------------------------------------------------------
519	2.532747e-08	4.996576e+00	-1.212890e-03	5.000000e+00	
520	2.537747e-08	4.996577e+00	-1.357998e-03	5.000000e+00	
521	2.542747e-08	4.996602e+00	-1.209303e-03	5.000000e+00	
522	2.547747e-08	4.996600e+00	-1.354530e-03	5.000000e+00	
523	2.552747e-08	4.996624e+00	-1.206003e-03	5.000000e+00	
524	2.557747e-08	4.996621e+00	-1.351484e-03	5.000000e+00	
525	2.562747e-08	4.996643e+00	-1.203144e-03	5.000000e+00	
526	2.567747e-08	4.996639e+00	-1.348817e-03	5.000000e+00	
527	2.572747e-08	4.996660e+00	-1.200639e-03	5.000000e+00	
528	2.577747e-08	4.996654e+00	-1.346362e-03	5.000000e+00	
529	2.582747e-08	4.996674e+00	-1.198572e-03	5.000000e+00	
530	2.587747e-08	4.996668e+00	-1.344140e-03	5.000000e+00	
531	2.592747e-08	4.996687e+00	-1.196714e-03	5.000000e+00	
532	2.597747e-08	4.996679e+00	-1.342313e-03	5.000000e+00	
533	2.602747e-08	4.996698e+00	-1.195196e-03	5.000000e+00	
534	2.607747e-08	4.996690e+00	-1.340633e-03	5.000000e+00	
535	2.612747e-08	4.996707e+00	-1.193822e-03	5.000000e+00	
536	2.617747e-08	4.996698e+00	-1.339046e-03	5.000000e+00	
537	2.622747e-08	4.996716e+00	-1.192761e-03	5.000000e+00	
538	2.627747e-08	4.996706e+00	-1.337683e-03	5.000000e+00	
539	2.632747e-08	4.996723e+00	-1.191806e-03	5.000000e+00	
540	2.637747e-08	4.996713e+00	-1.336391e-03	5.000000e+00	
541	2.642747e-08	4.996729e+00	-1.191064e-03	5.000000e+00	
542	2.647747e-08	4.996719e+00	-1.335313e-03	5.000000e+00	
543	2.652747e-08	4.996735e+00	-1.190400e-03	5.000000e+00	
544	2.657747e-08	4.996724e+00	-1.334235e-03	5.000000e+00	
545	2.662747e-08	4.996739e+00	-1.189908e-03	5.000000e+00	
546	2.667747e-08	4.996728e+00	-1.333273e-03	5.000000e+00	
547	2.672747e-08	4.996743e+00	-1.189599e-03	5.000000e+00	
548	2.677747e-08	4.996732e+00	-1.332307e-03	5.000000e+00	
549	2.682747e-08	4.996747e+00	-1.189218e-03	5.000000e+00	
550	2.687747e-08	4.996735e+00	-1.331574e-03	5.000000e+00	
551	2.692747e-08	4.996750e+00	-1.188990e-03	5.000000e+00	
552	2.697747e-08	4.996738e+00	-1.330851e-03	5.000000e+00	
553	2.702747e-08	4.996753e+00	-1.188818e-03	5.000000e+00	
554	2.707747e-08	4.996741e+00	-1.330113e-03	5.000000e+00	
555	2.712747e-08	4.996755e+00	-1.188736e-03	5.000000e+00	
556	2.717747e-08	4.996743e+00	-1.329425e-03	5.000000e+00	
557	2.722747e-08	4.996757e+00	-1.188694e-03	5.000000e+00	
558	2.727747e-08	4.996745e+00	-1.328843e-03	5.000000e+00	
559	2.732747e-08	4.996759e+00	-1.188760e-03	5.000000e+00	
560	2.737747e-08	4.996746e+00	-1.328319e-03	5.000000e+00	
561	2.742747e-08	4.996760e+00	-1.188781e-03	5.000000e+00	
562	2.747747e-08	4.996748e+00	-1.327770e-03	5.000000e+00	
563	2.752747e-08	4.996762e+00	-1.188831e-03	5.000000e+00	
564	2.757747e-08	4.996749e+00	-1.327110e-03	5.000000e+00	
565	2.762747e-08	4.996763e+00	-1.189039e-03	5.000000e+00	
566	2.767747e-08	4.996750e+00	-1.326670e-03	5.000000e+00	
567	2.772747e-08	4.996764e+00	-1.189211e-03	5.000000e+00	
568	2.777747e-08	4.996751e+00	-1.326170e-03	5.000000e+00	
569	2.782747e-08	4.996765e+00	-1.189391e-03	5.000000e+00	
570	2.787747e-08	4.996752e+00	-1.325559e-03	5.000000e+00	
571	2.792747e-08	4.996766e+00	-1.189660e-03	5.000000e+00	
572	2.797747e-08	4.996753e+00	-1.325044e-03	5.000000e+00	
573	2.802747e-08	4.996766e+00	-1.189920e-03	5.000000e+00	
574	2.807747e-08	4.996753e+00	-1.324650e-03	5.000000e+00	
575	2.812747e-08	4.996767e+00	-1.190218e-03	5.000000e+00	
576	2.817747e-08	4.996754e+00	-1.324198e-03	5.000000e+00	

Index   time            v(5)            v(11)           v(13)           
--------------------------------------------------------------------------------
577	2.822747e-08	4.996767e+00	-1.190539e-03	5.000000e+00	
578	2.827747e-08	4.996755e+00	-1.323695e-03	5.000000e+00	
579	2.832747e-08	4.996768e+00	-1.190867e-03	5.000000e+00	
580	2.837747e-08	4.996755e+00	-1.323121e-03	5.000000e+00	
581	2.842747e-08	4.996768e+00	-1.191176e-03	5.000000e+00	
582	2.847747e-08	4.996755e+00	-1.322677e-03	5.000000e+00	
583	2.852747e-08	4.996768e+00	-1.191610e-03	5.000000e+00	
584	2.857747e-08	4.996756e+00	-1.322336e-03	5.000000e+00	
585	2.862747e-08	4.996768e+00	-1.191902e-03	5.000000e+00	
586	2.867747e-08	4.996756e+00	-1.321810e-03	5.000000e+00	
587	2.872747e-08	4.996769e+00	-1.192259e-03	5.000000e+00	
588	2.877747e-08	4.996756e+00	-1.321326e-03	5.000000e+00	
589	2.882747e-08	4.996769e+00	-1.192594e-03	5.000000e+00	
590	2.887747e-08	4.996757e+00	-1.320734e-03	5.000000e+00	
591	2.892747e-08	4.996769e+00	-1.193025e-03	5.000000e+00	
592	2.897747e-08	4.996757e+00	-1.320429e-03	5.000000e+00	
593	2.902747e-08	4.996769e+00	-1.193487e-03	5.000000e+00	
594	2.907747e-08	4.996757e+00	-1.320004e-03	5.000000e+00	
595	2.912747e-08	4.996769e+00	-1.193824e-03	5.000000e+00	
596	2.917747e-08	4.996757e+00	-1.319520e-03	5.000000e+00	
597	2.922747e-08	4.996769e+00	-1.194261e-03	5.000000e+00	
598	2.927747e-08	4.996757e+00	-1.318950e-03	5.000000e+00	
599	2.932747e-08	4.996769e+00	-1.194741e-03	5.000000e+00	
600	2.937747e-08	4.996757e+00	-1.318592e-03	5.000000e+00	
601	2.942747e-08	4.996769e+00	-1.195234e-03	5.000000e+00	
602	2.947747e-08	4.996758e+00	-1.318111e-03	5.000000e+00	
603	2.952747e-08	4.996769e+00	-1.195531e-03	5.000000e+00	
604	2.957747e-08	4.996758e+00	-1.317570e-03	5.000000e+00	
605	2.962747e-08	4.996770e+00	-1.196025e-03	5.000000e+00	
606	2.967747e-08	4.996758e+00	-1.317214e-03	5.000000e+00	
607	2.972747e-08	4.996770e+00	-1.196377e-03	5.000000e+00	
608	2.977747e-08	4.996758e+00	-1.316787e-03	5.000000e+00	
609	2.982747e-08	4.996770e+00	-1.196738e-03	5.000000e+00	
610	2.987747e-08	4.996758e+00	-1.316312e-03	5.000000e+00	
611	2.992747e-08	4.996770e+00	-1.197271e-03	5.000000e+00	
612	2.997747e-08	4.996758e+00	-1.315932e-03	5.000000e+00	
613	3.002747e-08	4.996770e+00	-1.197751e-03	5.000000e+00	
614	3.007747e-08	4.996758e+00	-1.315500e-03	5.000000e+00	
615	3.012747e-08	4.996770e+00	-1.198116e-03	5.000000e+00	
616	3.017747e-08	4.996758e+00	-1.314973e-03	5.000000e+00	
617	3.022747e-08	4.996770e+00	-1.198580e-03	5.000000e+00	
618	3.027747e-08	4.996758e+00	-1.314521e-03	5.000000e+00	
619	3.032747e-08	4.996770e+00	-1.198999e-03	5.000000e+00	
620	3.037747e-08	4.996758e+00	-1.314033e-03	5.000000e+00	
621	3.042747e-08	4.996770e+00	-1.199447e-03	5.000000e+00	
622	3.047747e-08	4.996758e+00	-1.313545e-03	5.000000e+00	
623	3.052747e-08	4.996770e+00	-1.199916e-03	5.000000e+00	
624	3.057747e-08	4.996758e+00	-1.313145e-03	5.000000e+00	
625	3.062747e-08	4.996770e+00	-1.200383e-03	5.000000e+00	
626	3.067747e-08	4.996759e+00	-1.312738e-03	5.000000e+00	
627	3.072747e-08	4.996769e+00	-1.200806e-03	5.000000e+00	
628	3.077747e-08	4.996759e+00	-1.312236e-03	5.000000e+00	
629	3.082747e-08	4.996769e+00	-1.201286e-03	5.000000e+00	
630	3.087747e-08	4.996759e+00	-1.311768e-03	5.000000e+00	
631	3.092747e-08	4.996769e+00	-1.201772e-03	5.000000e+00	
632	3.097747e-08	4.996759e+00	-1.311307e-03	5.000000e+00	
633	3.102747e-08	4.996769e+00	-1.202236e-03	5.000000e+00	
634	3.107747e-08	4.996759e+00	-1.310841e-03	5.000000e+00	

Index   time            v(5)            v(11)           v(13)           
--------------------------------------------------------------------------------
635	3.112747e-08	4.996769e+00	-1.202706e-03	5.000000e+00	
636	3.117747e-08	4.996759e+00	-1.310385e-03	5.000000e+00	
637	3.122747e-08	4.996769e+00	-1.203165e-03	5.000000e+00	
638	3.127747e-08	4.996759e+00	-1.309932e-03	5.000000e+00	
639	3.132747e-08	4.996769e+00	-1.203554e-03	5.000000e+00	
640	3.137747e-08	4.996759e+00	-1.309456e-03	5.000000e+00	
641	3.142747e-08	4.996769e+00	-1.203971e-03	5.000000e+00	
642	3.147747e-08	4.996759e+00	-1.309050e-03	5.000000e+00	
643	3.152747e-08	4.996769e+00	-1.204463e-03	5.000000e+00	
644	3.157747e-08	4.996759e+00	-1.308689e-03	5.000000e+00	
645	3.162747e-08	4.996769e+00	-1.204938e-03	5.000000e+00	
646	3.167747e-08	4.996759e+00	-1.308283e-03	5.000000e+00	
647	3.172747e-08	4.996769e+00	-1.205228e-03	5.000000e+00	
648	3.177747e-08	4.996759e+00	-1.307788e-03	5.000000e+00	
649	3.182747e-08	4.996769e+00	-1.205596e-03	5.000000e+00	
650	3.187747e-08	4.996759e+00	-1.307399e-03	5.000000e+00	
651	3.190000e-08	4.996910e+00	-1.032548e-03	5.000000e+00	
652	3.190500e-08	4.996812e+00	-1.203562e-03	5.000000e+00	
653	3.191500e-08	4.996709e+00	-1.266972e-03	5.000000e+00	
654	3.193500e-08	4.996678e+00	-1.361705e-03	5.000000e+00	
655	3.197500e-08	5.012022e+00	-1.145325e-03	5.000000e+00	
656	3.202500e-08	5.082097e+00	-1.004445e-02	4.999999e+00	
657	3.207500e-08	5.218215e+00	-5.643957e-02	4.999997e+00	
658	3.210000e-08	5.301789e+00	-9.822239e-02	4.999996e+00	
659	3.210500e-08	5.307363e+00	-1.103366e-01	4.999995e+00	
660	3.211500e-08	5.309407e+00	-1.342192e-01	4.999995e+00	
661	3.213500e-08	5.301028e+00	-1.815006e-01	4.999995e+00	
662	3.217500e-08	5.275794e+00	-2.821189e-01	4.999995e+00	
663	3.222500e-08	5.223258e+00	-3.422501e-01	5.000000e+00	
664	3.227500e-08	5.188180e+00	-4.628566e-01	4.999993e+00	
665	3.232500e-08	5.149334e+00	-5.898713e-01	5.000005e+00	
666	3.237500e-08	5.108516e+00	-7.371053e-01	5.000002e+00	
667	3.242500e-08	5.074470e+00	-7.657564e-01	5.000032e+00	
668	3.247500e-08	5.039246e+00	-5.089217e-01	5.000102e+00	
669	3.252500e-08	4.994733e+00	1.857001e-02	5.000151e+00	
670	3.257500e-08	4.924289e+00	5.070892e-01	5.000103e+00	
671	3.262500e-08	4.892470e+00	4.755469e-01	4.999927e+00	
672	3.267500e-08	4.915797e+00	4.506483e-01	5.000079e+00	
673	3.272500e-08	4.880257e+00	4.476367e-01	4.999956e+00	
674	3.277500e-08	4.779641e+00	4.190541e-01	5.000048e+00	
675	3.282500e-08	4.648352e+00	4.218697e-01	4.999981e+00	
676	3.287500e-08	4.489579e+00	3.926057e-01	5.000024e+00	
677	3.292500e-08	4.412487e+00	3.631179e-01	5.000007e+00	
678	3.297500e-08	4.534698e+00	3.223747e-01	5.000035e+00	
679	3.302500e-08	4.834550e+00	2.948844e-01	5.000004e+00	
680	3.307500e-08	4.907204e+00	2.716046e-01	5.000008e+00	
681	3.312500e-08	4.816795e+00	2.886632e-01	5.000023e+00	
682	3.317500e-08	4.793598e+00	2.605715e-01	5.000002e+00	
683	3.322500e-08	4.765094e+00	2.211727e-01	5.000029e+00	
684	3.327500e-08	4.795566e+00	1.957599e-01	5.000020e+00	
685	3.332500e-08	4.770538e+00	1.919032e-01	5.000047e+00	
686	3.337500e-08	4.665498e+00	1.496490e-01	4.999962e+00	
687	3.342500e-08	4.472634e+00	1.676084e-01	5.000030e+00	
688	3.347500e-08	4.273639e+00	2.703016e-01	5.000056e+00	
689	3.352500e-08	4.124449e+00	3.560086e-01	5.000061e+00	
690	3.357500e-08	4.030955e+00	2.963054e-01	4.999962e+00	
691	3.362500e-08	3.922486e+00	2.642196e-01	5.000050e+00	
692	3.367500e-08	3.729457e+00	2.493465e-01	4.999954e+00	

Index   time            v(5)            v(11)           v(13)           
--------------------------------------------------------------------------------
693	3.372500e-08	3.466074e+00	2.677735e-01	5.000034e+00	
694	3.377500e-08	3.296247e+00	3.091507e-01	4.999995e+00	
695	3.382500e-08	3.305862e+00	3.351111e-01	5.000060e+00	
696	3.387500e-08	3.368264e+00	3.352651e-01	5.000000e+00	
697	3.392500e-08	3.428475e+00	2.925746e-01	4.999998e+00	
698	3.397500e-08	3.409820e+00	2.734856e-01	4.999992e+00	
699	3.402500e-08	3.292351e+00	2.841798e-01	5.000008e+00	
700	3.407500e-08	3.181737e+00	3.121505e-01	5.000019e+00	
701	3.412500e-08	3.162969e+00	2.994966e-01	4.999990e+00	
702	3.417500e-08	3.144583e+00	2.437105e-01	4.999985e+00	
703	3.422500e-08	3.035006e+00	1.324021e-01	4.999967e+00	
704	3.427500e-08	2.793098e+00	7.866740e-02	5.000005e+00	
705	3.432500e-08	2.528541e+00	8.175680e-02	4.999997e+00	
706	3.437500e-08	2.327154e+00	1.167249e-01	5.000016e+00	
707	3.442500e-08	2.201475e+00	1.308395e-01	4.999993e+00	
708	3.447500e-08	2.090020e+00	1.018153e-01	4.999994e+00	
709	3.452500e-08	1.932529e+00	5.737866e-02	4.999987e+00	
710	3.457500e-08	1.744151e+00	6.820078e-02	5.000015e+00	
711	3.462500e-08	1.590623e+00	1.277870e-01	5.000012e+00	
712	3.467500e-08	1.520875e+00	1.892946e-01	5.000016e+00	
713	3.472500e-08	1.520375e+00	2.022986e-01	4.999993e+00	
714	3.477500e-08	1.530023e+00	1.665532e-01	4.999991e+00	
715	3.482500e-08	1.483120e+00	1.346033e-01	4.999994e+00	
716	3.487500e-08	1.402067e+00	1.225669e-01	5.000000e+00	
717	3.492500e-08	1.333938e+00	1.421105e-01	5.000008e+00	
718	3.497500e-08	1.301936e+00	1.493025e-01	4.999996e+00	
719	3.502500e-08	1.274018e+00	1.252095e-01	4.999993e+00	
720	3.507500e-08	1.209398e+00	7.510610e-02	4.999985e+00	
721	3.512500e-08	1.098337e+00	4.233021e-02	4.999999e+00	
722	3.517500e-08	9.714218e-01	3.330074e-02	4.999998e+00	
723	3.522500e-08	8.582497e-01	4.716914e-02	5.000008e+00	
724	3.527500e-08	7.742930e-01	5.343844e-02	4.999996e+00	
725	3.532500e-08	7.050390e-01	4.450764e-02	4.999999e+00	
726	3.537500e-08	6.324552e-01	2.739534e-02	4.999994e+00	
727	3.542500e-08	5.564220e-01	2.122691e-02	5.000003e+00	
728	3.547500e-08	4.921171e-01	3.400781e-02	5.000003e+00	
729	3.552500e-08	4.534843e-01	5.547592e-02	5.000006e+00	
730	3.557500e-08	4.356513e-01	6.745989e-02	5.000000e+00	
731	3.562500e-08	4.239790e-01	6.391284e-02	4.999999e+00	
732	3.567500e-08	4.074754e-01	5.459301e-02	4.999997e+00	
733	3.572500e-08	3.884783e-01	4.961578e-02	5.000000e+00	
734	3.577500e-08	3.708233e-01	5.441273e-02	5.000002e+00	
735	3.582500e-08	3.568188e-01	5.786477e-02	5.000000e+00	
736	3.587500e-08	3.391954e-01	5.509682e-02	4.999999e+00	
737	3.592500e-08	3.150611e-01	4.383472e-02	4.999996e+00	
738	3.597500e-08	2.847801e-01	3.343205e-02	4.999999e+00	
739	3.602500e-08	2.526181e-01	2.691048e-02	4.999998e+00	
740	3.607500e-08	2.214856e-01	2.673271e-02	5.000001e+00	
741	3.612500e-08	1.941664e-01	2.628795e-02	4.999999e+00	
742	3.617500e-08	1.695682e-01	2.406788e-02	5.000000e+00	
743	3.622500e-08	1.483062e-01	1.889331e-02	4.999998e+00	
744	3.627500e-08	1.307858e-01	1.616506e-02	5.000001e+00	
745	3.632500e-08	1.181398e-01	1.762924e-02	5.000000e+00	
746	3.637500e-08	1.087896e-01	2.208321e-02	5.000002e+00	
747	3.642500e-08	1.015269e-01	2.546647e-02	5.000000e+00	
748	3.647500e-08	9.553507e-02	2.602098e-02	5.000000e+00	
749	3.652500e-08	9.094732e-02	2.462940e-02	4.999999e+00	
750	3.657500e-08	8.738437e-02	2.345241e-02	5.000000e+00	

Index   time            v(5)            v(11)           v(13)           
--------------------------------------------------------------------------------
751	3.662500e-08	8.378519e-02	2.375879e-02	5.000000e+00	
752	3.667500e-08	7.905403e-02	2.401603e-02	5.000000e+00	
753	3.672500e-08	7.263836e-02	2.329596e-02	5.000000e+00	
754	3.677500e-08	6.575645e-02	2.072448e-02	4.999999e+00	
755	3.682500e-08	5.912916e-02	1.810441e-02	5.000000e+00	
756	3.687500e-08	5.332650e-02	1.590393e-02	4.999999e+00	
757	3.692500e-08	4.765947e-02	1.521402e-02	5.000000e+00	
758	3.697500e-08	4.208324e-02	1.466605e-02	5.000000e+00	
759	3.702500e-08	3.658251e-02	1.409564e-02	5.000000e+00	
760	3.707500e-08	3.221874e-02	1.280632e-02	4.999999e+00	
761	3.712500e-08	2.917398e-02	1.199019e-02	5.000000e+00	
762	3.717500e-08	2.720636e-02	1.172302e-02	5.000000e+00	
763	3.722500e-08	2.527978e-02	1.217112e-02	5.000000e+00	
764	3.727500e-08	2.326543e-02	1.254001e-02	5.000000e+00	
765	3.732500e-08	2.135946e-02	1.250603e-02	5.000000e+00	
766	3.737500e-08	2.001025e-02	1.209655e-02	5.000000e+00	
767	3.742500e-08	1.915141e-02	1.158542e-02	5.000000e+00	
768	3.747500e-08	1.834820e-02	1.135844e-02	5.000000e+00	
769	3.752500e-08	1.719521e-02	1.112210e-02	5.000000e+00	
770	3.757500e-08	1.559270e-02	1.093988e-02	5.000000e+00	
771	3.762500e-08	1.399591e-02	1.035836e-02	5.000000e+00	
772	3.767500e-08	1.263232e-02	9.828797e-03	5.000000e+00	
773	3.772500e-08	1.163992e-02	9.130382e-03	5.000000e+00	
774	3.777500e-08	1.063024e-02	8.828537e-03	5.000000e+00	
775	3.782500e-08	9.553309e-03	8.445558e-03	5.000000e+00	
776	3.787500e-08	8.360319e-03	8.299025e-03	5.000000e+00	
777	3.792500e-08	7.435068e-03	7.890397e-03	5.000000e+00	
778	3.797500e-08	6.796968e-03	7.696613e-03	5.000000e+00	
779	3.802500e-08	6.430149e-03	7.387542e-03	5.000000e+00	
780	3.807500e-08	6.039203e-03	7.365552e-03	5.000000e+00	
781	3.812500e-08	5.608006e-03	7.229807e-03	5.000000e+00	
782	3.817500e-08	5.140083e-03	7.234071e-03	5.000000e+00	
783	3.822500e-08	4.786547e-03	7.045654e-03	5.000000e+00	
784	3.827500e-08	4.547987e-03	6.943539e-03	5.000000e+00	
785	3.832500e-08	4.352678e-03	6.726655e-03	5.000000e+00	
786	3.837500e-08	4.086028e-03	6.629775e-03	5.000000e+00	
787	3.842500e-08	3.710106e-03	6.456224e-03	5.000000e+00	
788	3.847500e-08	3.323897e-03	6.358341e-03	5.000000e+00	
789	3.852500e-08	2.986343e-03	6.161822e-03	5.000000e+00	
790	3.857500e-08	2.753717e-03	6.027682e-03	5.000000e+00	
791	3.862500e-08	2.535128e-03	5.841355e-03	5.000000e+00	
792	3.867500e-08	2.326809e-03	5.754175e-03	5.000000e+00	
793	3.872500e-08	2.080982e-03	5.626659e-03	5.000000e+00	
794	3.877500e-08	1.888102e-03	5.581160e-03	5.000000e+00	
795	3.882500e-08	1.730727e-03	5.466398e-03	5.000000e+00	
796	3.887500e-08	1.643182e-03	5.426110e-03	5.000000e+00	
797	3.892500e-08	1.547816e-03	5.313307e-03	5.000000e+00	
798	3.897500e-08	1.457855e-03	5.296544e-03	5.000000e+00	
799	3.902500e-08	1.337689e-03	5.200718e-03	5.000000e+00	
800	3.907500e-08	1.239544e-03	5.200436e-03	5.000000e+00	
801	3.912500e-08	1.149852e-03	5.093515e-03	5.000000e+00	
802	3.917500e-08	1.087300e-03	5.085688e-03	5.000000e+00	
803	3.922500e-08	1.012398e-03	4.967958e-03	5.000000e+00	
804	3.927500e-08	9.338631e-04	4.973522e-03	5.000000e+00	
805	3.932500e-08	8.436972e-04	4.867510e-03	5.000000e+00	
806	3.937500e-08	7.676763e-04	4.887361e-03	5.000000e+00	
807	3.942500e-08	7.022913e-04	4.778808e-03	5.000000e+00	
808	3.947500e-08	6.517676e-04	4.798057e-03	5.000000e+00	

Index   time            v(5)            v(11)           v(13)           
--------------------------------------------------------------------------------
809	3.952500e-08	6.012309e-04	4.689372e-03	5.000000e+00	
810	3.957500e-08	5.520084e-04	4.720117e-03	5.000000e+00	
811	3.962500e-08	5.017909e-04	4.623867e-03	5.000000e+00	
812	3.967500e-08	4.607117e-04	4.665002e-03	5.000000e+00	
813	3.972500e-08	4.256438e-04	4.571139e-03	5.000000e+00	
814	3.977500e-08	3.995982e-04	4.610896e-03	5.000000e+00	
815	3.982500e-08	3.717972e-04	4.518535e-03	5.000000e+00	
816	3.987500e-08	3.470545e-04	4.563568e-03	5.000000e+00	
817	3.992500e-08	3.178356e-04	4.479325e-03	5.000000e+00	
818	3.997500e-08	2.961390e-04	4.527157e-03	5.000000e+00	
819	4.002500e-08	2.714170e-04	4.443419e-03	5.000000e+00	
820	4.007500e-08	2.549328e-04	4.487898e-03	5.000000e+00	
821	4.012500e-08	2.313387e-04	4.405512e-03	5.000000e+00	
822	4.017500e-08	2.147193e-04	4.452473e-03	5.000000e+00	
823	4.022500e-08	1.900717e-04	4.375368e-03	5.000000e+00	
824	4.027500e-08	1.759275e-04	4.423897e-03	5.000000e+00	
825	4.032500e-08	1.551408e-04	4.347946e-03	5.000000e+00	
826	4.037500e-08	1.462597e-04	4.395878e-03	5.000000e+00	
827	4.042500e-08	1.285699e-04	4.322215e-03	5.000000e+00	
828	4.047500e-08	1.219723e-04	4.373184e-03	5.000000e+00	
829	4.052500e-08	1.055333e-04	4.303118e-03	5.000000e+00	
830	4.057500e-08	1.008247e-04	4.355887e-03	5.000000e+00	
831	4.062500e-08	8.674971e-05	4.286218e-03	5.000000e+00	
832	4.067500e-08	8.447046e-05	4.339034e-03	5.000000e+00	
833	4.072500e-08	7.202468e-05	4.269809e-03	5.000000e+00	
834	4.077500e-08	6.998402e-05	4.324635e-03	5.000000e+00	
835	4.082500e-08	5.733694e-05	4.256494e-03	5.000000e+00	
836	4.087500e-08	5.542585e-05	4.312190e-03	5.000000e+00	
837	4.092500e-08	4.401511e-05	4.243881e-03	5.000000e+00	
838	4.097500e-08	4.306728e-05	4.300087e-03	5.000000e+00	
839	4.102500e-08	3.278171e-05	4.232199e-03	5.000000e+00	
840	4.107500e-08	3.233372e-05	4.290106e-03	5.000000e+00	
841	4.112500e-08	2.275245e-05	4.222801e-03	5.000000e+00	
842	4.117500e-08	2.269495e-05	4.281663e-03	5.000000e+00	
843	4.122500e-08	1.420702e-05	4.214546e-03	5.000000e+00	
844	4.127500e-08	1.520369e-05	4.273956e-03	5.000000e+00	
845	4.132500e-08	7.574737e-06	4.207289e-03	5.000000e+00	
846	4.137500e-08	8.712104e-06	4.267304e-03	5.000000e+00	
847	4.142500e-08	1.282669e-06	4.201192e-03	5.000000e+00	
848	4.147500e-08	2.754266e-06	4.261343e-03	5.000000e+00	
849	4.152500e-08	-4.049997e-06	4.195693e-03	5.000000e+00	
850	4.157500e-08	-2.027642e-06	4.256194e-03	5.000000e+00	
851	4.162500e-08	-8.456068e-06	4.190948e-03	5.000000e+00	
852	4.167500e-08	-6.154551e-06	4.251504e-03	5.000000e+00	
853	4.172500e-08	-1.255094e-05	4.187025e-03	5.000000e+00	
854	4.177500e-08	-9.892916e-06	4.247719e-03	5.000000e+00	
855	4.182500e-08	-1.587463e-05	4.183479e-03	5.000000e+00	
856	4.187500e-08	-1.308726e-05	4.243969e-03	5.000000e+00	
857	4.192500e-08	-1.891913e-05	4.180479e-03	5.000000e+00	
858	4.197500e-08	-1.603377e-05	4.240694e-03	5.000000e+00	
859	4.202500e-08	-2.191031e-05	4.177827e-03	5.000000e+00	
860	4.207500e-08	-1.869892e-05	4.237859e-03	5.000000e+00	
861	4.212500e-08	-2.426586e-05	4.175434e-03	5.000000e+00	
862	4.217500e-08	-2.083692e-05	4.235217e-03	5.000000e+00	
863	4.222500e-08	-2.623042e-05	4.173321e-03	5.000000e+00	
864	4.227500e-08	-2.252927e-05	4.233027e-03	5.000000e+00	
865	4.232500e-08	-2.792659e-05	4.171621e-03	5.000000e+00	
866	4.237500e-08	-2.418532e-05	4.231140e-03	5.000000e+00	

Index   time            v(5)            v(11)           v(13)           
--------------------------------------------------------------------------------
867	4.242500e-08	-2.935130e-05	4.170118e-03	5.000000e+00	
868	4.247500e-08	-2.545797e-05	4.229587e-03	5.000000e+00	
869	4.252500e-08	-3.065683e-05	4.169021e-03	5.000000e+00	
870	4.257500e-08	-2.675606e-05	4.228072e-03	5.000000e+00	
871	4.262500e-08	-3.168384e-05	4.168005e-03	5.000000e+00	
872	4.267500e-08	-2.784422e-05	4.226843e-03	5.000000e+00	
873	4.272500e-08	-3.271389e-05	4.167043e-03	5.000000e+00	
874	4.277500e-08	-2.870761e-05	4.225661e-03	5.000000e+00	
875	4.282500e-08	-3.345706e-05	4.166111e-03	5.000000e+00	
876	4.287500e-08	-2.966023e-05	4.224388e-03	5.000000e+00	
877	4.292500e-08	-3.442641e-05	4.165398e-03	5.000000e+00	
878	4.297500e-08	-3.029290e-05	4.223698e-03	5.000000e+00	
879	4.302500e-08	-3.481450e-05	4.164789e-03	5.000000e+00	
880	4.307500e-08	-3.095645e-05	4.222822e-03	5.000000e+00	
881	4.312500e-08	-3.532666e-05	4.164232e-03	5.000000e+00	
882	4.317500e-08	-3.124893e-05	4.221859e-03	5.000000e+00	
883	4.322500e-08	-3.588157e-05	4.163995e-03	5.000000e+00	
884	4.327500e-08	-3.189993e-05	4.221365e-03	5.000000e+00	
885	4.332500e-08	-3.632969e-05	4.163730e-03	5.000000e+00	
886	4.337500e-08	-3.252030e-05	4.220657e-03	5.000000e+00	
887	4.342500e-08	-3.669606e-05	4.163353e-03	5.000000e+00	
888	4.347500e-08	-3.277364e-05	4.219922e-03	5.000000e+00	
889	4.352500e-08	-3.695883e-05	4.163236e-03	5.000000e+00	
890	4.357500e-08	-3.297014e-05	4.219663e-03	5.000000e+00	
891	4.362500e-08	-3.724523e-05	4.163031e-03	5.000000e+00	
892	4.367500e-08	-3.323707e-05	4.219001e-03	5.000000e+00	
893	4.372500e-08	-3.745640e-05	4.162871e-03	5.000000e+00	
894	4.377500e-08	-3.362589e-05	4.218450e-03	5.000000e+00	
895	4.382500e-08	-3.783810e-05	4.162882e-03	5.000000e+00	
896	4.387500e-08	-3.376835e-05	4.217962e-03	5.000000e+00	
897	4.392500e-08	-3.785286e-05	4.162705e-03	5.000000e+00	
898	4.397500e-08	-3.405871e-05	4.217417e-03	5.000000e+00	
899	4.402500e-08	-3.798630e-05	4.162900e-03	5.000000e+00	
900	4.407500e-08	-3.401602e-05	4.217262e-03	5.000000e+00	
901	4.412500e-08	-3.808274e-05	4.163078e-03	5.000000e+00	
902	4.417500e-08	-3.419443e-05	4.216923e-03	5.000000e+00	
903	4.422500e-08	-3.824753e-05	4.163106e-03	5.000000e+00	
904	4.427500e-08	-3.435045e-05	4.216579e-03	5.000000e+00	
905	4.432500e-08	-3.828526e-05	4.163071e-03	5.000000e+00	
906	4.437500e-08	-3.453283e-05	4.216331e-03	5.000000e+00	
907	4.442500e-08	-3.856053e-05	4.163101e-03	5.000000e+00	
908	4.447500e-08	-3.465031e-05	4.215915e-03	5.000000e+00	
909	4.452500e-08	-3.845693e-05	4.163188e-03	5.000000e+00	
910	4.457500e-08	-3.469253e-05	4.215690e-03	5.000000e+00	
911	4.462500e-08	-3.862299e-05	4.163327e-03	5.000000e+00	
912	4.467500e-08	-3.483266e-05	4.215206e-03	5.000000e+00	
913	4.472500e-08	-3.853112e-05	4.163465e-03	5.000000e+00	
914	4.477500e-08	-3.484195e-05	4.214853e-03	5.000000e+00	
915	4.482500e-08	-3.863288e-05	4.163644e-03	5.000000e+00	
916	4.487500e-08	-3.491315e-05	4.214716e-03	5.000000e+00	
917	4.492500e-08	-3.858691e-05	4.163715e-03	5.000000e+00	
918	4.497500e-08	-3.508161e-05	4.214483e-03	5.000000e+00	
919	4.502500e-08	-3.881668e-05	4.163841e-03	5.000000e+00	
920	4.507500e-08	-3.508900e-05	4.214241e-03	5.000000e+00	
921	4.512500e-08	-3.883172e-05	4.163996e-03	5.000000e+00	
922	4.517500e-08	-3.520278e-05	4.214035e-03	5.000000e+00	
923	4.522500e-08	-3.875095e-05	4.164210e-03	5.000000e+00	
924	4.527500e-08	-3.510380e-05	4.213682e-03	5.000000e+00	

Index   time            v(5)            v(11)           v(13)           
--------------------------------------------------------------------------------
925	4.532500e-08	-3.870785e-05	4.164393e-03	5.000000e+00	
926	4.537500e-08	-3.507236e-05	4.213577e-03	5.000000e+00	
927	4.542500e-08	-3.873428e-05	4.164859e-03	5.000000e+00	
928	4.547500e-08	-3.516568e-05	4.213364e-03	5.000000e+00	
929	4.552500e-08	-3.859545e-05	4.164783e-03	5.000000e+00	
930	4.557500e-08	-3.522198e-05	4.213198e-03	5.000000e+00	
931	4.562500e-08	-3.878363e-05	4.165049e-03	5.000000e+00	
932	4.567500e-08	-3.526483e-05	4.212734e-03	5.000000e+00	
933	4.572500e-08	-3.876699e-05	4.165140e-03	5.000000e+00	
934	4.577500e-08	-3.536699e-05	4.212525e-03	5.000000e+00	
935	4.582500e-08	-3.886789e-05	4.165253e-03	5.000000e+00	
936	4.587500e-08	-3.535032e-05	4.212272e-03	5.000000e+00	
937	4.592500e-08	-3.872563e-05	4.165568e-03	5.000000e+00	
938	4.597500e-08	-3.541666e-05	4.212134e-03	5.000000e+00	
939	4.602500e-08	-3.879619e-05	4.165654e-03	5.000000e+00	
940	4.607500e-08	-3.532364e-05	4.211851e-03	5.000000e+00	
941	4.612500e-08	-3.869699e-05	4.165921e-03	5.000000e+00	
942	4.617500e-08	-3.534467e-05	4.211683e-03	5.000000e+00	
943	4.622500e-08	-3.869237e-05	4.165958e-03	5.000000e+00	
944	4.627500e-08	-3.544305e-05	4.211410e-03	5.000000e+00	
945	4.632500e-08	-3.873379e-05	4.166352e-03	5.000000e+00	
946	4.637500e-08	-3.549417e-05	4.211351e-03	5.000000e+00	
947	4.642500e-08	-3.870523e-05	4.166499e-03	5.000000e+00	
948	4.647500e-08	-3.544404e-05	4.211170e-03	5.000000e+00	
949	4.652500e-08	-3.869390e-05	4.166802e-03	5.000000e+00	
950	4.657500e-08	-3.542566e-05	4.211081e-03	5.000000e+00	
951	4.662500e-08	-3.858511e-05	4.167206e-03	5.000000e+00	
952	4.667500e-08	-3.534861e-05	4.210789e-03	5.000000e+00	
953	4.672500e-08	-3.853032e-05	4.167168e-03	5.000000e+00	
954	4.677500e-08	-3.544197e-05	4.210563e-03	5.000000e+00	
955	4.682500e-08	-3.860691e-05	4.167400e-03	5.000000e+00	
956	4.687500e-08	-3.548443e-05	4.210288e-03	5.000000e+00	
957	4.692500e-08	-3.874883e-05	4.167545e-03	5.000000e+00	
958	4.697500e-08	-3.556146e-05	4.210104e-03	5.000000e+00	
959	4.702500e-08	-3.849129e-05	4.167564e-03	5.000000e+00	
960	4.707500e-08	-3.554112e-05	4.209829e-03	5.000000e+00	
961	4.712500e-08	-3.862587e-05	4.167829e-03	5.000000e+00	
962	4.717500e-08	-3.555217e-05	4.209646e-03	5.000000e+00	
963	4.722500e-08	-3.866704e-05	4.168243e-03	5.000000e+00	
964	4.727500e-08	-3.553610e-05	4.209656e-03	5.000000e+00	
965	4.732500e-08	-3.849782e-05	4.168368e-03	5.000000e+00	
966	4.737500e-08	-3.547251e-05	4.209303e-03	5.000000e+00	
967	4.742500e-08	-3.843473e-05	4.168507e-03	5.000000e+00	
968	4.747500e-08	-3.563447e-05	4.209275e-03	5.000000e+00	
969	4.752500e-08	-3.860621e-05	4.168847e-03	5.000000e+00	
970	4.757500e-08	-3.562976e-05	4.209003e-03	5.000000e+00	
971	4.762500e-08	-3.855448e-05	4.168957e-03	5.000000e+00	
972	4.767500e-08	-3.557962e-05	4.208771e-03	5.000000e+00	
973	4.772500e-08	-3.847596e-05	4.169005e-03	5.000000e+00	
974	4.777500e-08	-3.558965e-05	4.208505e-03	5.000000e+00	
975	4.782500e-08	-3.854215e-05	4.169249e-03	5.000000e+00	
976	4.787500e-08	-3.561469e-05	4.208330e-03	5.000000e+00	
977	4.790000e-08	-4.761920e-05	4.150461e-03	5.000000e+00	

CPU time since last call: 0.677 seconds.

Total CPU time: 0.677 seconds.

Current dynamic memory usage = 270336,
Dynamic memory limit = -491521.

