Warning: vs2: no DC value, transient time 0 value used
Warning: vs1: no DC value, transient time 0 value used

Circuit: ************ test circuit for transmission simulation **************

Warning -- Level not specified on line "vto=0.8 kp=48u gamma=0.30 phi=0.55 lambda=0.00 cgso=0 cgdo=0 cj=0 cjsw=0 tox=18000n ld=0.0u"
Using level 1.
Warning -- Level not specified on line "vto=-0.8 kp=21u gamma=0.45 phi=0.61 lambda=0.00 cgso=0 cgdo=0  cj=0 cjsw=0 tox=18000n ld=0.0u"
Using level 1.
Doing analysis at TEMP = 300.150000 and TNOM = 300.150000

Initial Transient Solution
--------------------------

Node                                   Voltage
----                                   -------
1                                            5
2                                            0
6                                            5
3                                            5
7                                  1.24256e-09
4                                            0
8                                            5
10                                           5
5                                  1.24256e-09
11                                 1.24256e-09
13                                           5
12                                           5
14                                 3.69512e-36
9                                  1.24256e-09
p1#branch1_0                                 0
p1#branch1_1                                 0
p1#branch1_2                                 0
p1#branch1_3                                 0
p1#branch2_0                                 0
p1#branch2_1                                 0
p1#branch2_2                                 0
p1#branch2_3                                 0
vs2#branch                                   0
vs1#branch                                   0
v3#branch                                    0
vdd#branch                        -2.50473e-11


No. of Data Rows : 978
      ************ test circuit for transmission simulation **************
--------------------------------------------------------------------------------
Index   time            v(5)            v(11)           v(13)           
--------------------------------------------------------------------------------
0	0.000000e+00	1.242558e-09	1.242560e-09	5.000000e+00	
1	2.000000e-12	1.094179e-09	8.465256e-10	5.000000e+00	
2	4.000000e-12	1.075954e-09	1.085196e-09	5.000000e+00	
3	8.000000e-12	1.069066e-09	1.294607e-09	5.000000e+00	
4	1.600000e-11	1.072347e-09	1.217840e-09	5.000000e+00	
5	3.200000e-11	1.069520e-09	1.260711e-09	5.000000e+00	
6	6.400000e-11	1.072052e-09	1.225600e-09	5.000000e+00	
7	1.140000e-10	1.069211e-09	1.172658e-09	5.000000e+00	
8	1.640000e-10	1.059079e-09	1.146731e-09	5.000000e+00	
9	2.140000e-10	1.047148e-09	1.165732e-09	5.000000e+00	
10	2.640000e-10	1.048976e-09	1.135721e-09	5.000000e+00	
11	3.140000e-10	1.040322e-09	1.185690e-09	5.000000e+00	
12	3.640000e-10	1.050389e-09	1.168089e-09	5.000000e+00	
13	4.140000e-10	1.028300e-09	1.136136e-09	5.000000e+00	
14	4.640000e-10	9.016819e-10	4.188391e-10	5.000000e+00	
15	5.140000e-10	9.124165e-10	4.712221e-10	5.000000e+00	
16	5.640000e-10	8.830080e-10	5.086887e-10	5.000000e+00	
17	6.140000e-10	8.327339e-10	4.437619e-10	5.000000e+00	
18	6.640000e-10	8.574395e-10	4.641976e-10	5.000000e+00	
19	7.140000e-10	8.499655e-10	4.258836e-10	5.000000e+00	
20	7.640000e-10	8.999567e-10	4.484222e-10	5.000000e+00	
21	8.140000e-10	8.347189e-10	4.117418e-10	5.000000e+00	
22	8.640000e-10	9.300390e-10	4.412345e-10	5.000000e+00	
23	9.140000e-10	8.144911e-10	5.020115e-10	5.000000e+00	
24	9.640000e-10	7.472178e-10	3.433682e-10	5.000000e+00	
25	1.014000e-09	7.820921e-10	2.445233e-10	5.000000e+00	
26	1.064000e-09	7.060547e-10	2.446295e-10	5.000000e+00	
27	1.114000e-09	7.236502e-10	1.911868e-10	5.000000e+00	
28	1.164000e-09	6.868706e-10	1.722142e-10	5.000000e+00	
29	1.214000e-09	7.015806e-10	1.598407e-10	5.000000e+00	
30	1.264000e-09	6.992037e-10	2.056623e-10	5.000000e+00	
31	1.314000e-09	6.912080e-10	1.396074e-10	5.000000e+00	
32	1.364000e-09	6.994346e-10	2.271831e-10	5.000000e+00	
33	1.414000e-09	7.088897e-10	2.260186e-10	5.000000e+00	
34	1.464000e-09	6.844748e-10	2.424664e-10	5.000000e+00	
35	1.514000e-09	6.868412e-10	1.952867e-10	5.000000e+00	
36	1.564000e-09	6.680105e-10	1.908951e-10	5.000000e+00	
37	1.614000e-09	6.704795e-10	1.735460e-10	5.000000e+00	
38	1.664000e-09	6.528866e-10	1.621956e-10	5.000000e+00	
39	1.714000e-09	6.446218e-10	1.563328e-10	5.000000e+00	
40	1.764000e-09	6.527166e-10	1.655458e-10	5.000000e+00	
41	1.814000e-09	6.456154e-10	1.437184e-10	5.000000e+00	
42	1.864000e-09	6.609103e-10	1.541167e-10	5.000000e+00	
43	1.914000e-09	6.565257e-10	1.741936e-10	5.000000e+00	
44	1.964000e-09	6.657484e-10	1.909664e-10	5.000000e+00	
45	2.014000e-09	6.594518e-10	1.952802e-10	5.000000e+00	
46	2.064000e-09	6.611969e-10	1.859591e-10	5.000000e+00	
47	2.114000e-09	6.568141e-10	1.892264e-10	5.000000e+00	
48	2.164000e-09	6.579258e-10	1.783844e-10	5.000000e+00	
49	2.214000e-09	6.527793e-10	1.808644e-10	5.000000e+00	
50	2.264000e-09	6.521024e-10	1.767671e-10	5.000000e+00	
51	2.314000e-09	6.493067e-10	1.700516e-10	5.000000e+00	
52	2.364000e-09	6.531433e-10	1.692816e-10	5.000000e+00	
53	2.414000e-09	6.523486e-10	1.710673e-10	5.000000e+00	
54	2.464000e-09	6.554946e-10	1.832422e-10	5.000000e+00	

Index   time            v(5)            v(11)           v(13)           
--------------------------------------------------------------------------------
55	2.514000e-09	6.583116e-10	1.826199e-10	5.000000e+00	
56	2.564000e-09	6.586706e-10	1.887634e-10	5.000000e+00	
57	2.614000e-09	6.592803e-10	1.845182e-10	5.000000e+00	
58	2.664000e-09	6.592717e-10	1.900223e-10	5.000000e+00	
59	2.714000e-09	6.587970e-10	1.857756e-10	5.000000e+00	
60	2.764000e-09	6.571417e-10	1.907081e-10	5.000000e+00	
61	2.814000e-09	6.559329e-10	1.805882e-10	5.000000e+00	
62	2.864000e-09	6.559080e-10	1.842758e-10	5.000000e+00	
63	2.914000e-09	6.562470e-10	1.767312e-10	5.000000e+00	
64	2.964000e-09	6.566086e-10	1.844046e-10	5.000000e+00	
65	3.014000e-09	6.571204e-10	1.801154e-10	5.000000e+00	
66	3.064000e-09	6.582870e-10	1.874421e-10	5.000000e+00	
67	3.114000e-09	6.585006e-10	1.832776e-10	5.000000e+00	
68	3.164000e-09	6.590180e-10	1.888304e-10	5.000000e+00	
69	3.214000e-09	6.593917e-10	1.850622e-10	5.000000e+00	
70	3.264000e-09	6.596270e-10	1.897785e-10	5.000000e+00	
71	3.314000e-09	6.586141e-10	1.849438e-10	5.000000e+00	
72	3.364000e-09	6.584668e-10	1.876573e-10	5.000000e+00	
73	3.414000e-09	6.578999e-10	1.829890e-10	5.000000e+00	
74	3.464000e-09	6.580670e-10	1.860278e-10	5.000000e+00	
75	3.514000e-09	6.576078e-10	1.822450e-10	5.000000e+00	
76	3.564000e-09	6.583370e-10	1.858877e-10	5.000000e+00	
77	3.614000e-09	6.581100e-10	1.831993e-10	5.000000e+00	
78	3.664000e-09	6.589371e-10	1.866090e-10	5.000000e+00	
79	3.714000e-09	6.585630e-10	1.840108e-10	5.000000e+00	
80	3.764000e-09	6.593473e-10	1.876391e-10	5.000000e+00	
81	3.814000e-09	6.587411e-10	1.849685e-10	5.000000e+00	
82	3.864000e-09	6.591438e-10	1.877756e-10	5.000000e+00	
83	3.914000e-09	6.584084e-10	1.843650e-10	5.000000e+00	
84	3.964000e-09	6.588770e-10	1.870623e-10	5.000000e+00	
85	4.014000e-09	6.582364e-10	1.833980e-10	5.000000e+00	
86	4.064000e-09	6.585831e-10	1.865213e-10	5.000000e+00	
87	4.114000e-09	6.581226e-10	1.833393e-10	5.000000e+00	
88	4.164000e-09	6.586194e-10	1.866040e-10	5.000000e+00	
89	4.214000e-09	6.582884e-10	1.833883e-10	5.000000e+00	
90	4.264000e-09	6.588024e-10	1.868110e-10	5.000000e+00	
91	4.314000e-09	6.585339e-10	1.838212e-10	5.000000e+00	
92	4.364000e-09	6.588569e-10	1.872568e-10	5.000000e+00	
93	4.414000e-09	6.586482e-10	1.841365e-10	5.000000e+00	
94	4.464000e-09	6.587189e-10	1.871696e-10	5.000000e+00	
95	4.514000e-09	6.585171e-10	1.839134e-10	5.000000e+00	
96	4.564000e-09	6.586241e-10	1.868737e-10	5.000000e+00	
97	4.614000e-09	6.583947e-10	1.837126e-10	5.000000e+00	
98	4.664000e-09	6.585534e-10	1.866708e-10	5.000000e+00	
99	4.714000e-09	6.583492e-10	1.835572e-10	5.000000e+00	
100	4.764000e-09	6.586291e-10	1.866139e-10	5.000000e+00	
101	4.814000e-09	6.583538e-10	1.837445e-10	5.000000e+00	
102	4.864000e-09	6.587210e-10	1.867594e-10	5.000000e+00	
103	4.914000e-09	6.584393e-10	1.840003e-10	5.000000e+00	
104	4.964000e-09	6.587455e-10	1.868128e-10	5.000000e+00	
105	5.014000e-09	6.584516e-10	1.840395e-10	5.000000e+00	
106	5.064000e-09	6.587163e-10	1.867470e-10	5.000000e+00	
107	5.114000e-09	6.584115e-10	1.840439e-10	5.000000e+00	
108	5.164000e-09	6.586571e-10	1.866382e-10	5.000000e+00	
109	5.214000e-09	6.583550e-10	1.839406e-10	5.000000e+00	
110	5.264000e-09	6.586330e-10	1.865383e-10	5.000000e+00	
111	5.314000e-09	6.583662e-10	1.839189e-10	5.000000e+00	
112	5.364000e-09	6.586429e-10	1.865277e-10	5.000000e+00	

Index   time            v(5)            v(11)           v(13)           
--------------------------------------------------------------------------------
113	5.414000e-09	6.584088e-10	1.839789e-10	5.000000e+00	
114	5.464000e-09	6.586602e-10	1.865903e-10	5.000000e+00	
115	5.514000e-09	6.584396e-10	1.840585e-10	5.000000e+00	
116	5.564000e-09	6.586578e-10	1.866191e-10	5.000000e+00	
117	5.614000e-09	6.584495e-10	1.840933e-10	5.000000e+00	
118	5.664000e-09	6.586498e-10	1.865956e-10	5.000000e+00	
119	5.714000e-09	6.584332e-10	1.840576e-10	5.000000e+00	
120	5.764000e-09	6.586268e-10	1.865340e-10	5.000000e+00	
121	5.814000e-09	6.584178e-10	1.840336e-10	5.000000e+00	
122	5.864000e-09	6.586163e-10	1.864922e-10	5.000000e+00	
123	5.914000e-09	6.584187e-10	1.840389e-10	5.000000e+00	
124	5.964000e-09	6.586180e-10	1.864890e-10	5.000000e+00	
125	6.014000e-09	6.584338e-10	1.840800e-10	5.000000e+00	
126	6.064000e-09	6.586329e-10	1.864903e-10	5.000000e+00	
127	6.114000e-09	6.584423e-10	1.841071e-10	5.000000e+00	
128	6.164000e-09	6.586342e-10	1.864862e-10	5.000000e+00	
129	6.214000e-09	6.584436e-10	1.841356e-10	5.000000e+00	
130	6.264000e-09	6.586233e-10	1.864663e-10	5.000000e+00	
131	6.314000e-09	6.584340e-10	1.841341e-10	5.000000e+00	
132	6.364000e-09	6.586187e-10	1.864283e-10	5.000000e+00	
133	6.414000e-09	6.584372e-10	1.841396e-10	5.000000e+00	
134	6.464000e-09	6.586142e-10	1.864057e-10	5.000000e+00	
135	6.514000e-09	6.584396e-10	1.841639e-10	5.000000e+00	
136	6.564000e-09	6.586160e-10	1.863864e-10	5.000000e+00	
137	6.614000e-09	6.584404e-10	1.841713e-10	5.000000e+00	
138	6.664000e-09	6.586154e-10	1.863879e-10	5.000000e+00	
139	6.714000e-09	6.584533e-10	1.842014e-10	5.000000e+00	
140	6.764000e-09	6.586225e-10	1.863747e-10	5.000000e+00	
141	6.814000e-09	6.584486e-10	1.842067e-10	5.000000e+00	
142	6.864000e-09	6.586168e-10	1.863479e-10	5.000000e+00	
143	6.914000e-09	6.584468e-10	1.842105e-10	5.000000e+00	
144	6.964000e-09	6.586072e-10	1.863356e-10	5.000000e+00	
145	7.014000e-09	6.584475e-10	1.842189e-10	5.000000e+00	
146	7.064000e-09	6.586037e-10	1.863101e-10	5.000000e+00	
147	7.114000e-09	6.584490e-10	1.842275e-10	5.000000e+00	
148	7.164000e-09	6.586071e-10	1.863060e-10	5.000000e+00	
149	7.214000e-09	6.584525e-10	1.842494e-10	5.000000e+00	
150	7.264000e-09	6.586065e-10	1.862936e-10	5.000000e+00	
151	7.314000e-09	6.584554e-10	1.842566e-10	5.000000e+00	
152	7.364000e-09	6.586055e-10	1.862773e-10	5.000000e+00	
153	7.414000e-09	6.584587e-10	1.842689e-10	5.000000e+00	
154	7.464000e-09	6.586060e-10	1.862623e-10	5.000000e+00	
155	7.514000e-09	6.584566e-10	1.842809e-10	5.000000e+00	
156	7.564000e-09	6.586014e-10	1.862485e-10	5.000000e+00	
157	7.614000e-09	6.584594e-10	1.842873e-10	5.000000e+00	
158	7.664000e-09	6.585984e-10	1.862393e-10	5.000000e+00	
159	7.714000e-09	6.584590e-10	1.842981e-10	5.000000e+00	
160	7.764000e-09	6.586004e-10	1.862175e-10	5.000000e+00	
161	7.814000e-09	6.584620e-10	1.843087e-10	5.000000e+00	
162	7.864000e-09	6.585991e-10	1.862151e-10	5.000000e+00	
163	7.914000e-09	6.584604e-10	1.843128e-10	5.000000e+00	
164	7.964000e-09	6.585951e-10	1.861973e-10	5.000000e+00	
165	8.014000e-09	6.584609e-10	1.843309e-10	5.000000e+00	
166	8.064000e-09	6.585954e-10	1.861832e-10	5.000000e+00	
167	8.114000e-09	6.584657e-10	1.843402e-10	5.000000e+00	
168	8.164000e-09	6.585966e-10	1.861664e-10	5.000000e+00	
169	8.214000e-09	6.584629e-10	1.843449e-10	5.000000e+00	
170	8.264000e-09	6.585941e-10	1.861637e-10	5.000000e+00	

Index   time            v(5)            v(11)           v(13)           
--------------------------------------------------------------------------------
171	8.314000e-09	6.584675e-10	1.843556e-10	5.000000e+00	
172	8.364000e-09	6.585944e-10	1.861546e-10	5.000000e+00	
173	8.414000e-09	6.584656e-10	1.843611e-10	5.000000e+00	
174	8.464000e-09	6.585930e-10	1.861302e-10	5.000000e+00	
175	8.514000e-09	6.584668e-10	1.843704e-10	5.000000e+00	
176	8.564000e-09	6.585904e-10	1.861267e-10	5.000000e+00	
177	8.614000e-09	6.584659e-10	1.843840e-10	5.000000e+00	
178	8.664000e-09	6.585870e-10	1.861167e-10	5.000000e+00	
179	8.714000e-09	6.584692e-10	1.843901e-10	5.000000e+00	
180	8.764000e-09	6.585897e-10	1.861008e-10	5.000000e+00	
181	8.814000e-09	6.584718e-10	1.843945e-10	5.000000e+00	
182	8.864000e-09	6.585880e-10	1.860876e-10	5.000000e+00	
183	8.914000e-09	6.584701e-10	1.844093e-10	5.000000e+00	
184	8.964000e-09	6.585875e-10	1.860770e-10	5.000000e+00	
185	9.014000e-09	6.584700e-10	1.844153e-10	5.000000e+00	
186	9.064000e-09	6.585878e-10	1.860747e-10	5.000000e+00	
187	9.114000e-09	6.584741e-10	1.844237e-10	5.000000e+00	
188	9.164000e-09	6.585860e-10	1.860575e-10	5.000000e+00	
189	9.214000e-09	6.584748e-10	1.844369e-10	5.000000e+00	
190	9.264000e-09	6.585880e-10	1.860520e-10	5.000000e+00	
191	9.314000e-09	6.584740e-10	1.844416e-10	5.000000e+00	
192	9.364000e-09	6.585861e-10	1.860300e-10	5.000000e+00	
193	9.414000e-09	6.584726e-10	1.844482e-10	5.000000e+00	
194	9.464000e-09	6.585825e-10	1.860243e-10	5.000000e+00	
195	9.514000e-09	6.584737e-10	1.844505e-10	5.000000e+00	
196	9.564000e-09	6.585830e-10	1.860138e-10	5.000000e+00	
197	9.614000e-09	6.584754e-10	1.844581e-10	5.000000e+00	
198	9.664000e-09	6.585830e-10	1.860069e-10	5.000000e+00	
199	9.714000e-09	6.584757e-10	1.844680e-10	5.000000e+00	
200	9.764000e-09	6.585841e-10	1.860016e-10	5.000000e+00	
201	9.814000e-09	6.584786e-10	1.844741e-10	5.000000e+00	
202	9.864000e-09	6.585792e-10	1.859899e-10	5.000000e+00	
203	9.914000e-09	6.584794e-10	1.844818e-10	5.000000e+00	
204	9.964000e-09	6.585817e-10	1.859722e-10	5.000000e+00	
205	1.001400e-08	6.584809e-10	1.844922e-10	5.000000e+00	
206	1.006400e-08	6.585799e-10	1.859586e-10	5.000000e+00	
207	1.011400e-08	6.584777e-10	1.844920e-10	5.000000e+00	
208	1.016400e-08	6.585762e-10	1.859562e-10	5.000000e+00	
209	1.021400e-08	6.584796e-10	1.844998e-10	5.000000e+00	
210	1.026400e-08	6.585780e-10	1.859385e-10	5.000000e+00	
211	1.031400e-08	6.584775e-10	1.845038e-10	5.000000e+00	
212	1.036400e-08	6.585770e-10	1.859309e-10	5.000000e+00	
213	1.041400e-08	6.584797e-10	1.845196e-10	5.000000e+00	
214	1.046400e-08	6.585915e-10	1.858987e-10	5.000000e+00	
215	1.051400e-08	6.584699e-10	1.845054e-10	5.000000e+00	
216	1.056400e-08	6.585866e-10	1.858984e-10	5.000000e+00	
217	1.061400e-08	6.584775e-10	1.845185e-10	5.000000e+00	
218	1.066400e-08	6.585844e-10	1.858920e-10	5.000000e+00	
219	1.071400e-08	6.584907e-10	1.845244e-10	5.000000e+00	
220	1.076400e-08	6.585755e-10	1.858776e-10	5.000000e+00	
221	1.081400e-08	6.584964e-10	1.845450e-10	5.000000e+00	
222	1.086400e-08	6.585848e-10	1.858775e-10	5.000000e+00	
223	1.091400e-08	6.584845e-10	1.845286e-10	5.000000e+00	
224	1.096400e-08	6.585936e-10	1.858572e-10	5.000000e+00	
225	1.101400e-08	6.584870e-10	1.845346e-10	5.000000e+00	
226	1.106400e-08	6.585880e-10	1.858653e-10	5.000000e+00	
227	1.111400e-08	6.584964e-10	1.845315e-10	5.000000e+00	
228	1.116400e-08	6.585874e-10	1.858531e-10	5.000000e+00	

Index   time            v(5)            v(11)           v(13)           
--------------------------------------------------------------------------------
229	1.121400e-08	6.584999e-10	1.845505e-10	5.000000e+00	
230	1.126400e-08	6.585804e-10	1.858364e-10	5.000000e+00	
231	1.131400e-08	6.585078e-10	1.845540e-10	5.000000e+00	
232	1.136400e-08	6.585850e-10	1.858333e-10	5.000000e+00	
233	1.141400e-08	6.585067e-10	1.845542e-10	5.000000e+00	
234	1.146400e-08	6.585785e-10	1.858286e-10	5.000000e+00	
235	1.151400e-08	6.585062e-10	1.845632e-10	5.000000e+00	
236	1.156400e-08	6.585868e-10	1.858202e-10	5.000000e+00	
237	1.161400e-08	6.585016e-10	1.845603e-10	5.000000e+00	
238	1.166400e-08	6.585887e-10	1.858044e-10	5.000000e+00	
239	1.171400e-08	6.585034e-10	1.845687e-10	5.000000e+00	
240	1.176400e-08	6.585870e-10	1.857976e-10	5.000000e+00	
241	1.181400e-08	6.585041e-10	1.845820e-10	5.000000e+00	
242	1.186400e-08	6.585867e-10	1.857993e-10	5.000000e+00	
243	1.191400e-08	6.585074e-10	1.845833e-10	5.000000e+00	
244	1.196400e-08	6.585880e-10	1.857844e-10	5.000000e+00	
245	1.201400e-08	6.585056e-10	1.845968e-10	5.000000e+00	
246	1.206400e-08	6.585917e-10	1.857674e-10	5.000000e+00	
247	1.211400e-08	6.585013e-10	1.845888e-10	5.000000e+00	
248	1.216400e-08	6.585839e-10	1.857567e-10	5.000000e+00	
249	1.221400e-08	6.585031e-10	1.845975e-10	5.000000e+00	
250	1.226400e-08	6.585830e-10	1.857551e-10	5.000000e+00	
251	1.231400e-08	6.585076e-10	1.846027e-10	5.000000e+00	
252	1.236400e-08	6.585858e-10	1.857407e-10	5.000000e+00	
253	1.241400e-08	6.585058e-10	1.846104e-10	5.000000e+00	
254	1.246400e-08	6.585870e-10	1.857371e-10	5.000000e+00	
255	1.251400e-08	6.585062e-10	1.846132e-10	5.000000e+00	
256	1.256400e-08	6.585816e-10	1.857354e-10	5.000000e+00	
257	1.261400e-08	6.585077e-10	1.846206e-10	5.000000e+00	
258	1.266400e-08	6.585849e-10	1.857210e-10	5.000000e+00	
259	1.271400e-08	6.585118e-10	1.846149e-10	5.000000e+00	
260	1.276400e-08	6.585837e-10	1.857159e-10	5.000000e+00	
261	1.281400e-08	6.585094e-10	1.846261e-10	5.000000e+00	
262	1.286400e-08	6.585812e-10	1.857033e-10	5.000000e+00	
263	1.291400e-08	6.585065e-10	1.846227e-10	5.000000e+00	
264	1.296400e-08	6.585815e-10	1.856964e-10	5.000000e+00	
265	1.301400e-08	6.585089e-10	1.846313e-10	5.000000e+00	
266	1.306400e-08	6.585847e-10	1.856925e-10	5.000000e+00	
267	1.311400e-08	6.585109e-10	1.846411e-10	5.000000e+00	
268	1.316400e-08	6.585825e-10	1.856885e-10	5.000000e+00	
269	1.321400e-08	6.585109e-10	1.846404e-10	5.000000e+00	
270	1.326400e-08	6.585817e-10	1.856771e-10	5.000000e+00	
271	1.331400e-08	6.585099e-10	1.846463e-10	5.000000e+00	
272	1.336400e-08	6.585801e-10	1.856622e-10	5.000000e+00	
273	1.341400e-08	6.585067e-10	1.846512e-10	5.000000e+00	
274	1.346400e-08	6.585808e-10	1.856570e-10	5.000000e+00	
275	1.351400e-08	6.585128e-10	1.846528e-10	5.000000e+00	
276	1.356400e-08	6.585790e-10	1.856543e-10	5.000000e+00	
277	1.361400e-08	6.585095e-10	1.846532e-10	5.000000e+00	
278	1.366400e-08	6.585811e-10	1.856423e-10	5.000000e+00	
279	1.371400e-08	6.585098e-10	1.846638e-10	5.000000e+00	
280	1.376400e-08	6.585803e-10	1.856364e-10	5.000000e+00	
281	1.381400e-08	6.585118e-10	1.846647e-10	5.000000e+00	
282	1.386400e-08	6.585793e-10	1.856341e-10	5.000000e+00	
283	1.391400e-08	6.585139e-10	1.846723e-10	5.000000e+00	
284	1.396400e-08	6.585780e-10	1.856239e-10	5.000000e+00	
285	1.401400e-08	6.585124e-10	1.846748e-10	5.000000e+00	
286	1.406400e-08	6.585802e-10	1.856188e-10	5.000000e+00	

Index   time            v(5)            v(11)           v(13)           
--------------------------------------------------------------------------------
287	1.411400e-08	6.585136e-10	1.846749e-10	5.000000e+00	
288	1.416400e-08	6.585798e-10	1.856144e-10	5.000000e+00	
289	1.421400e-08	6.585117e-10	1.846820e-10	5.000000e+00	
290	1.426400e-08	6.585777e-10	1.856062e-10	5.000000e+00	
291	1.431400e-08	6.585114e-10	1.846810e-10	5.000000e+00	
292	1.436400e-08	6.585757e-10	1.855945e-10	5.000000e+00	
293	1.441400e-08	6.585102e-10	1.846858e-10	5.000000e+00	
294	1.446400e-08	6.585757e-10	1.855841e-10	5.000000e+00	
295	1.451400e-08	6.585145e-10	1.846977e-10	5.000000e+00	
296	1.456400e-08	6.585756e-10	1.855844e-10	5.000000e+00	
297	1.461400e-08	6.585146e-10	1.847022e-10	5.000000e+00	
298	1.466400e-08	6.585785e-10	1.855805e-10	5.000000e+00	
299	1.471400e-08	6.585155e-10	1.847019e-10	5.000000e+00	
300	1.476400e-08	6.585766e-10	1.855765e-10	5.000000e+00	
301	1.481400e-08	6.585143e-10	1.847002e-10	5.000000e+00	
302	1.486400e-08	6.585776e-10	1.855598e-10	5.000000e+00	
303	1.491400e-08	6.585130e-10	1.847070e-10	5.000000e+00	
304	1.496400e-08	6.585749e-10	1.855578e-10	5.000000e+00	
305	1.501400e-08	6.585150e-10	1.847110e-10	5.000000e+00	
306	1.506400e-08	6.585775e-10	1.855590e-10	5.000000e+00	
307	1.511400e-08	6.585167e-10	1.847117e-10	5.000000e+00	
308	1.516400e-08	6.585762e-10	1.855489e-10	5.000000e+00	
309	1.521400e-08	6.585167e-10	1.847187e-10	5.000000e+00	
310	1.526400e-08	6.585755e-10	1.855406e-10	5.000000e+00	
311	1.531400e-08	6.585173e-10	1.847166e-10	5.000000e+00	
312	1.536400e-08	6.585759e-10	1.855332e-10	5.000000e+00	
313	1.541400e-08	6.585152e-10	1.847080e-10	5.000000e+00	
314	1.546400e-08	6.585701e-10	1.855281e-10	5.000000e+00	
315	1.551400e-08	6.585163e-10	1.847168e-10	5.000000e+00	
316	1.556400e-08	6.585720e-10	1.855176e-10	5.000000e+00	
317	1.561400e-08	6.585158e-10	1.847253e-10	5.000000e+00	
318	1.566400e-08	6.585709e-10	1.855100e-10	5.000000e+00	
319	1.571400e-08	6.585154e-10	1.847301e-10	5.000000e+00	
320	1.576400e-08	6.585705e-10	1.855050e-10	5.000000e+00	
321	1.581400e-08	6.585213e-10	1.847264e-10	5.000000e+00	
322	1.586400e-08	6.585698e-10	1.855092e-10	5.000000e+00	
323	1.590000e-08	6.583613e-10	1.843538e-10	5.000000e+00	
324	1.590500e-08	1.905064e-05	3.539542e-09	5.000000e+00	
325	1.591500e-08	2.953776e-05	9.514156e-11	5.000000e+00	
326	1.593500e-08	-5.491204e-05	-8.052150e-09	5.000000e+00	
327	1.597500e-08	-1.869916e-02	-2.754280e-05	5.000000e+00	
328	1.602500e-08	-1.018972e-01	1.180725e-02	5.000005e+00	
329	1.607500e-08	-2.573277e-01	7.328848e-02	5.000021e+00	
330	1.610000e-08	-3.570932e-01	1.238820e-01	5.000024e+00	
331	1.610500e-08	-3.678443e-01	1.382730e-01	5.000029e+00	
332	1.611500e-08	-3.724864e-01	1.690435e-01	5.000036e+00	
333	1.613500e-08	-3.613074e-01	2.300007e-01	5.000034e+00	
334	1.616219e-08	-3.456630e-01	3.518435e-01	5.000065e+00	
335	1.620758e-08	-2.859666e-01	4.074936e-01	4.999975e+00	
336	1.625062e-08	-2.384676e-01	5.173064e-01	5.000075e+00	
337	1.630062e-08	-1.993107e-01	6.798920e-01	5.000014e+00	
338	1.635062e-08	-1.457439e-01	8.465647e-01	4.999690e+00	
339	1.640062e-08	-1.002549e-01	1.001155e+00	4.993470e+00	
340	1.645062e-08	-6.338128e-02	8.410132e-01	4.998311e+00	
341	1.650062e-08	-1.370623e-03	3.407718e-01	5.000528e+00	
342	1.655062e-08	7.798810e-02	-3.436210e-01	4.999299e+00	
343	1.659236e-08	1.536421e-01	-5.172158e-01	5.000434e+00	
344	1.662543e-08	1.642164e-01	-5.066957e-01	4.999624e+00	

Index   time            v(5)            v(11)           v(13)           
--------------------------------------------------------------------------------
345	1.665917e-08	1.482693e-01	-5.398242e-01	5.000253e+00	
346	1.669062e-08	1.365980e-01	-5.349118e-01	4.999772e+00	
347	1.674062e-08	2.167147e-01	-5.321475e-01	5.000172e+00	
348	1.679062e-08	3.990640e-01	-5.153479e-01	4.999835e+00	
349	1.684062e-08	6.185885e-01	-5.198787e-01	5.000126e+00	
350	1.689062e-08	7.842784e-01	-4.860788e-01	4.999878e+00	
351	1.694062e-08	8.286017e-01	-4.475251e-01	5.000073e+00	
352	1.699062e-08	5.570056e-01	-3.915734e-01	4.999905e+00	
353	1.704062e-08	2.975667e-01	-3.610972e-01	5.000067e+00	
354	1.708808e-08	3.180668e-01	-3.698371e-01	4.999930e+00	
355	1.713121e-08	3.652460e-01	-3.858442e-01	5.000048e+00	
356	1.717747e-08	4.060254e-01	-3.659781e-01	4.999940e+00	
357	1.722747e-08	3.924978e-01	-3.429914e-01	5.000028e+00	
358	1.727747e-08	3.402892e-01	-3.070922e-01	4.999943e+00	
359	1.732747e-08	3.563573e-01	-2.472990e-01	5.000021e+00	
360	1.737747e-08	5.297501e-01	-2.084840e-01	4.999992e+00	
361	1.742747e-08	7.650610e-01	-2.229064e-01	5.000010e+00	
362	1.747747e-08	9.635035e-01	-3.132286e-01	4.999949e+00	
363	1.752747e-08	1.094925e+00	-3.420772e-01	5.000007e+00	
364	1.757747e-08	1.190595e+00	-2.790165e-01	4.999984e+00	
365	1.762747e-08	1.303647e+00	-2.313212e-01	5.000016e+00	
366	1.767747e-08	1.542159e+00	-2.258468e-01	4.999999e+00	
367	1.772747e-08	1.817208e+00	-2.617876e-01	5.000007e+00	
368	1.777747e-08	1.926292e+00	-3.187129e-01	4.999973e+00	
369	1.782747e-08	1.891233e+00	-3.415770e-01	4.999996e+00	
370	1.787747e-08	1.814614e+00	-3.043150e-01	4.999992e+00	
371	1.792747e-08	1.782999e+00	-2.603664e-01	5.000010e+00	
372	1.797747e-08	1.856593e+00	-2.517009e-01	5.000001e+00	
373	1.802747e-08	1.980057e+00	-2.793041e-01	4.999996e+00	
374	1.807747e-08	2.041232e+00	-2.963400e-01	4.999982e+00	
375	1.812747e-08	2.042299e+00	-2.753305e-01	4.999990e+00	
376	1.817747e-08	2.076657e+00	-1.878623e-01	5.000013e+00	
377	1.822747e-08	2.209155e+00	-1.028814e-01	5.000011e+00	
378	1.827747e-08	2.434270e+00	-7.420207e-02	5.000010e+00	
379	1.832747e-08	2.655227e+00	-8.455390e-02	4.999998e+00	
380	1.837747e-08	2.794034e+00	-1.025965e-01	4.999991e+00	
381	1.842747e-08	2.875724e+00	-9.118329e-02	4.999997e+00	
382	1.847747e-08	2.982779e+00	-5.214351e-02	5.000008e+00	
383	1.852747e-08	3.136863e+00	-2.399683e-02	5.000011e+00	
384	1.857747e-08	3.304086e+00	-4.703177e-02	4.999999e+00	
385	1.862747e-08	3.416765e+00	-9.455940e-02	4.999992e+00	
386	1.867747e-08	3.454420e+00	-1.270049e-01	4.999987e+00	
387	1.872747e-08	3.446115e+00	-1.170325e-01	5.000000e+00	
388	1.877747e-08	3.464968e+00	-8.893377e-02	5.000001e+00	
389	1.882747e-08	3.530262e+00	-7.131388e-02	5.000006e+00	
390	1.887747e-08	3.611820e+00	-8.210052e-02	4.999994e+00	
391	1.892747e-08	3.665176e+00	-9.783773e-02	4.999998e+00	
392	1.897747e-08	3.688741e+00	-9.570694e-02	4.999993e+00	
393	1.902747e-08	3.718325e+00	-6.792891e-02	5.000006e+00	
394	1.907747e-08	3.789783e+00	-3.737629e-02	5.000002e+00	
395	1.912747e-08	3.893598e+00	-2.105027e-02	5.000008e+00	
396	1.917747e-08	3.996576e+00	-2.413481e-02	4.999997e+00	
397	1.922747e-08	4.075042e+00	-3.344954e-02	5.000001e+00	
398	1.927747e-08	4.131040e+00	-3.112176e-02	4.999997e+00	
399	1.932747e-08	4.184447e+00	-1.861690e-02	5.000004e+00	
400	1.937747e-08	4.249589e+00	-7.400273e-03	5.000001e+00	
401	1.942747e-08	4.318523e+00	-9.560780e-03	5.000002e+00	
402	1.947747e-08	4.372140e+00	-2.164291e-02	4.999996e+00	

Index   time            v(5)            v(11)           v(13)           
--------------------------------------------------------------------------------
403	1.952747e-08	4.400947e+00	-3.339578e-02	4.999998e+00	
404	1.957747e-08	4.416203e+00	-3.395784e-02	4.999998e+00	
405	1.962747e-08	4.435482e+00	-2.816727e-02	5.000001e+00	
406	1.967747e-08	4.465105e+00	-2.314544e-02	5.000000e+00	
407	1.972747e-08	4.497104e+00	-2.461527e-02	5.000000e+00	
408	1.977747e-08	4.522495e+00	-2.888564e-02	4.999999e+00	
409	1.982747e-08	4.541345e+00	-3.017132e-02	4.999999e+00	
410	1.987747e-08	4.562031e+00	-2.537139e-02	5.000000e+00	
411	1.992747e-08	4.589401e+00	-1.807866e-02	5.000001e+00	
412	1.997747e-08	4.622886e+00	-1.318891e-02	5.000001e+00	
413	2.002747e-08	4.655848e+00	-1.257143e-02	5.000000e+00	
414	2.007747e-08	4.683807e+00	-1.393315e-02	5.000000e+00	
415	2.012747e-08	4.705909e+00	-1.351365e-02	5.000000e+00	
416	2.017747e-08	4.726723e+00	-1.103571e-02	5.000000e+00	
417	2.022747e-08	4.747912e+00	-7.975926e-03	5.000001e+00	
418	2.027747e-08	4.768758e+00	-7.700534e-03	5.000000e+00	
419	2.032747e-08	4.785545e+00	-9.410644e-03	5.000000e+00	
420	2.037747e-08	4.797981e+00	-1.183676e-02	4.999999e+00	
421	2.042747e-08	4.807629e+00	-1.228105e-02	5.000000e+00	
422	2.047747e-08	4.817591e+00	-1.159563e-02	4.999999e+00	
423	2.052747e-08	4.827961e+00	-1.030763e-02	5.000001e+00	
424	2.057747e-08	4.838444e+00	-1.035256e-02	4.999999e+00	
425	2.062747e-08	4.847630e+00	-1.074681e-02	5.000000e+00	
426	2.067747e-08	4.856223e+00	-1.109341e-02	4.999999e+00	
427	2.072747e-08	4.864595e+00	-1.014872e-02	5.000001e+00	
428	2.077747e-08	4.873762e+00	-8.835270e-03	5.000000e+00	
429	2.082747e-08	4.883118e+00	-7.492532e-03	5.000001e+00	
430	2.087747e-08	4.892225e+00	-7.101528e-03	4.999999e+00	
431	2.092747e-08	4.900165e+00	-6.950927e-03	5.000001e+00	
432	2.097747e-08	4.907339e+00	-6.865954e-03	4.999999e+00	
433	2.102747e-08	4.913910e+00	-6.249557e-03	5.000001e+00	
434	2.107747e-08	4.920215e+00	-5.687614e-03	5.000000e+00	
435	2.112747e-08	4.925838e+00	-5.313062e-03	5.000001e+00	
436	2.117747e-08	4.930760e+00	-5.447059e-03	4.999999e+00	
437	2.122747e-08	4.934946e+00	-5.606167e-03	5.000000e+00	
438	2.127747e-08	4.938783e+00	-5.693207e-03	4.999999e+00	
439	2.132747e-08	4.942344e+00	-5.438856e-03	5.000000e+00	
440	2.137747e-08	4.945767e+00	-5.205000e-03	5.000000e+00	
441	2.142747e-08	4.948940e+00	-4.968808e-03	5.000000e+00	
442	2.147747e-08	4.951946e+00	-4.951573e-03	5.000000e+00	
443	2.152747e-08	4.954795e+00	-4.806381e-03	5.000000e+00	
444	2.157747e-08	4.957628e+00	-4.669843e-03	5.000000e+00	
445	2.162747e-08	4.960385e+00	-4.293850e-03	5.000000e+00	
446	2.167747e-08	4.963047e+00	-4.073844e-03	5.000000e+00	
447	2.172747e-08	4.965477e+00	-3.777228e-03	5.000000e+00	
448	2.177747e-08	4.967754e+00	-3.731842e-03	5.000000e+00	
449	2.182747e-08	4.969857e+00	-3.515182e-03	5.000000e+00	
450	2.187747e-08	4.971862e+00	-3.468735e-03	5.000000e+00	
451	2.192747e-08	4.973650e+00	-3.205727e-03	5.000000e+00	
452	2.197747e-08	4.975276e+00	-3.192765e-03	5.000000e+00	
453	2.202747e-08	4.976689e+00	-3.000289e-03	5.000000e+00	
454	2.207747e-08	4.978026e+00	-3.071728e-03	5.000000e+00	
455	2.212747e-08	4.979241e+00	-2.895361e-03	5.000000e+00	
456	2.217747e-08	4.980416e+00	-2.946020e-03	5.000000e+00	
457	2.222747e-08	4.981465e+00	-2.730316e-03	5.000000e+00	
458	2.227747e-08	4.982461e+00	-2.774554e-03	5.000000e+00	
459	2.232747e-08	4.983363e+00	-2.569336e-03	5.000000e+00	
460	2.237747e-08	4.984265e+00	-2.628516e-03	5.000000e+00	

Index   time            v(5)            v(11)           v(13)           
--------------------------------------------------------------------------------
461	2.242747e-08	4.985119e+00	-2.421977e-03	5.000000e+00	
462	2.247747e-08	4.985958e+00	-2.470123e-03	5.000000e+00	
463	2.252747e-08	4.986710e+00	-2.258580e-03	5.000000e+00	
464	2.257747e-08	4.987417e+00	-2.313019e-03	5.000000e+00	
465	2.262747e-08	4.988063e+00	-2.119667e-03	5.000000e+00	
466	2.267747e-08	4.988687e+00	-2.190698e-03	5.000000e+00	
467	2.272747e-08	4.989263e+00	-2.011644e-03	5.000000e+00	
468	2.277747e-08	4.989795e+00	-2.090660e-03	5.000000e+00	
469	2.282747e-08	4.990270e+00	-1.920253e-03	5.000000e+00	
470	2.287747e-08	4.990700e+00	-2.006138e-03	5.000000e+00	
471	2.292747e-08	4.991102e+00	-1.843619e-03	5.000000e+00	
472	2.297747e-08	4.991479e+00	-1.935917e-03	5.000000e+00	
473	2.302747e-08	4.991839e+00	-1.777655e-03	5.000000e+00	
474	2.307747e-08	4.992165e+00	-1.872764e-03	5.000000e+00	
475	2.312747e-08	4.992471e+00	-1.713826e-03	5.000000e+00	
476	2.317747e-08	4.992747e+00	-1.809722e-03	5.000000e+00	
477	2.322747e-08	4.993021e+00	-1.650497e-03	5.000000e+00	
478	2.327747e-08	4.993275e+00	-1.751114e-03	5.000000e+00	
479	2.332747e-08	4.993525e+00	-1.594136e-03	5.000000e+00	
480	2.337747e-08	4.993744e+00	-1.700273e-03	5.000000e+00	
481	2.342747e-08	4.993957e+00	-1.543151e-03	5.000000e+00	
482	2.347747e-08	4.994143e+00	-1.653227e-03	5.000000e+00	
483	2.352747e-08	4.994331e+00	-1.496779e-03	5.000000e+00	
484	2.357747e-08	4.994495e+00	-1.613382e-03	5.000000e+00	
485	2.362747e-08	4.994659e+00	-1.459573e-03	5.000000e+00	
486	2.367747e-08	4.994796e+00	-1.581692e-03	5.000000e+00	
487	2.372747e-08	4.994934e+00	-1.427584e-03	5.000000e+00	
488	2.377747e-08	4.995049e+00	-1.552666e-03	5.000000e+00	
489	2.382747e-08	4.995171e+00	-1.398382e-03	5.000000e+00	
490	2.387747e-08	4.995272e+00	-1.527274e-03	5.000000e+00	
491	2.392747e-08	4.995380e+00	-1.373825e-03	5.000000e+00	
492	2.397747e-08	4.995464e+00	-1.505211e-03	5.000000e+00	
493	2.402747e-08	4.995559e+00	-1.350942e-03	5.000000e+00	
494	2.407747e-08	4.995632e+00	-1.483591e-03	5.000000e+00	
495	2.412747e-08	4.995718e+00	-1.329543e-03	5.000000e+00	
496	2.417747e-08	4.995781e+00	-1.464578e-03	5.000000e+00	
497	2.422747e-08	4.995858e+00	-1.311690e-03	5.000000e+00	
498	2.427747e-08	4.995910e+00	-1.448282e-03	5.000000e+00	
499	2.432747e-08	4.995978e+00	-1.295520e-03	5.000000e+00	
500	2.437747e-08	4.996022e+00	-1.433264e-03	5.000000e+00	
501	2.442747e-08	4.996083e+00	-1.281204e-03	5.000000e+00	
502	2.447747e-08	4.996120e+00	-1.420625e-03	5.000000e+00	
503	2.452747e-08	4.996174e+00	-1.269628e-03	5.000000e+00	
504	2.457747e-08	4.996203e+00	-1.409905e-03	5.000000e+00	
505	2.462747e-08	4.996251e+00	-1.259216e-03	5.000000e+00	
506	2.467747e-08	4.996275e+00	-1.400140e-03	5.000000e+00	
507	2.472747e-08	4.996319e+00	-1.249913e-03	5.000000e+00	
508	2.477747e-08	4.996338e+00	-1.391836e-03	5.000000e+00	
509	2.482747e-08	4.996378e+00	-1.241932e-03	5.000000e+00	
510	2.487747e-08	4.996392e+00	-1.384236e-03	5.000000e+00	
511	2.492747e-08	4.996429e+00	-1.234497e-03	5.000000e+00	
512	2.497747e-08	4.996440e+00	-1.377346e-03	5.000000e+00	
513	2.502747e-08	4.996474e+00	-1.227912e-03	5.000000e+00	
514	2.507747e-08	4.996482e+00	-1.371613e-03	5.000000e+00	
515	2.512747e-08	4.996513e+00	-1.222415e-03	5.000000e+00	
516	2.517747e-08	4.996518e+00	-1.366553e-03	5.000000e+00	
517	2.522747e-08	4.996547e+00	-1.217464e-03	5.000000e+00	
518	2.527747e-08	4.996549e+00	-1.362016e-03	5.000000e+00	

Index   time            v(5)            v(11)           v(13)           
--------------------------------------------------------------------------------
519	2.532747e-08	4.996576e+00	-1.212934e-03	5.000000e+00	
520	2.537747e-08	4.996577e+00	-1.358049e-03	5.000000e+00	
521	2.542747e-08	4.996602e+00	-1.209240e-03	5.000000e+00	
522	2.547747e-08	4.996600e+00	-1.354627e-03	5.000000e+00	
523	2.552747e-08	4.996624e+00	-1.206057e-03	5.000000e+00	
524	2.557747e-08	4.996621e+00	-1.351688e-03	5.000000e+00	
525	2.562747e-08	4.996643e+00	-1.203260e-03	5.000000e+00	
526	2.567747e-08	4.996638e+00	-1.349035e-03	5.000000e+00	
527	2.572747e-08	4.996660e+00	-1.200750e-03	5.000000e+00	
528	2.577747e-08	4.996654e+00	-1.346548e-03	5.000000e+00	
529	2.582747e-08	4.996674e+00	-1.198513e-03	5.000000e+00	
530	2.587747e-08	4.996667e+00	-1.344317e-03	5.000000e+00	
531	2.592747e-08	4.996687e+00	-1.196800e-03	5.000000e+00	
532	2.597747e-08	4.996679e+00	-1.342337e-03	5.000000e+00	
533	2.602747e-08	4.996698e+00	-1.195194e-03	5.000000e+00	
534	2.607747e-08	4.996689e+00	-1.340575e-03	5.000000e+00	
535	2.612747e-08	4.996707e+00	-1.193888e-03	5.000000e+00	
536	2.617747e-08	4.996698e+00	-1.339169e-03	5.000000e+00	
537	2.622747e-08	4.996716e+00	-1.192861e-03	5.000000e+00	
538	2.627747e-08	4.996706e+00	-1.337727e-03	5.000000e+00	
539	2.632747e-08	4.996723e+00	-1.191941e-03	5.000000e+00	
540	2.637747e-08	4.996713e+00	-1.336417e-03	5.000000e+00	
541	2.642747e-08	4.996729e+00	-1.191112e-03	5.000000e+00	
542	2.647747e-08	4.996718e+00	-1.335288e-03	5.000000e+00	
543	2.652747e-08	4.996735e+00	-1.190520e-03	5.000000e+00	
544	2.657747e-08	4.996724e+00	-1.334277e-03	5.000000e+00	
545	2.662747e-08	4.996739e+00	-1.189915e-03	5.000000e+00	
546	2.667747e-08	4.996728e+00	-1.333330e-03	5.000000e+00	
547	2.672747e-08	4.996743e+00	-1.189500e-03	5.000000e+00	
548	2.677747e-08	4.996732e+00	-1.332486e-03	5.000000e+00	
549	2.682747e-08	4.996747e+00	-1.189272e-03	5.000000e+00	
550	2.687747e-08	4.996735e+00	-1.331700e-03	5.000000e+00	
551	2.692747e-08	4.996750e+00	-1.189097e-03	5.000000e+00	
552	2.697747e-08	4.996738e+00	-1.330907e-03	5.000000e+00	
553	2.702747e-08	4.996753e+00	-1.188830e-03	5.000000e+00	
554	2.707747e-08	4.996740e+00	-1.330139e-03	5.000000e+00	
555	2.712747e-08	4.996755e+00	-1.188752e-03	5.000000e+00	
556	2.717747e-08	4.996743e+00	-1.329547e-03	5.000000e+00	
557	2.722747e-08	4.996757e+00	-1.188778e-03	5.000000e+00	
558	2.727747e-08	4.996745e+00	-1.328860e-03	5.000000e+00	
559	2.732747e-08	4.996759e+00	-1.188730e-03	5.000000e+00	
560	2.737747e-08	4.996746e+00	-1.328277e-03	5.000000e+00	
561	2.742747e-08	4.996760e+00	-1.188853e-03	5.000000e+00	
562	2.747747e-08	4.996748e+00	-1.327731e-03	5.000000e+00	
563	2.752747e-08	4.996762e+00	-1.188952e-03	5.000000e+00	
564	2.757747e-08	4.996749e+00	-1.327183e-03	5.000000e+00	
565	2.762747e-08	4.996763e+00	-1.189119e-03	5.000000e+00	
566	2.767747e-08	4.996750e+00	-1.326716e-03	5.000000e+00	
567	2.772747e-08	4.996764e+00	-1.189341e-03	5.000000e+00	
568	2.777747e-08	4.996751e+00	-1.326253e-03	5.000000e+00	
569	2.782747e-08	4.996765e+00	-1.189431e-03	5.000000e+00	
570	2.787747e-08	4.996752e+00	-1.325622e-03	5.000000e+00	
571	2.792747e-08	4.996765e+00	-1.189734e-03	5.000000e+00	
572	2.797747e-08	4.996753e+00	-1.324983e-03	5.000000e+00	
573	2.802747e-08	4.996766e+00	-1.189948e-03	5.000000e+00	
574	2.807747e-08	4.996753e+00	-1.324636e-03	5.000000e+00	
575	2.812747e-08	4.996767e+00	-1.190283e-03	5.000000e+00	
576	2.817747e-08	4.996754e+00	-1.324224e-03	5.000000e+00	

Index   time            v(5)            v(11)           v(13)           
--------------------------------------------------------------------------------
577	2.822747e-08	4.996767e+00	-1.190567e-03	5.000000e+00	
578	2.827747e-08	4.996755e+00	-1.323626e-03	5.000000e+00	
579	2.832747e-08	4.996768e+00	-1.190924e-03	5.000000e+00	
580	2.837747e-08	4.996755e+00	-1.323165e-03	5.000000e+00	
581	2.842747e-08	4.996768e+00	-1.191174e-03	5.000000e+00	
582	2.847747e-08	4.996755e+00	-1.322702e-03	5.000000e+00	
583	2.852747e-08	4.996768e+00	-1.191610e-03	5.000000e+00	
584	2.857747e-08	4.996756e+00	-1.322364e-03	5.000000e+00	
585	2.862747e-08	4.996768e+00	-1.191920e-03	5.000000e+00	
586	2.867747e-08	4.996756e+00	-1.321868e-03	5.000000e+00	
587	2.872747e-08	4.996769e+00	-1.192321e-03	5.000000e+00	
588	2.877747e-08	4.996756e+00	-1.321388e-03	5.000000e+00	
589	2.882747e-08	4.996769e+00	-1.192734e-03	5.000000e+00	
590	2.887747e-08	4.996756e+00	-1.320852e-03	5.000000e+00	
591	2.892747e-08	4.996769e+00	-1.193096e-03	5.000000e+00	
592	2.897747e-08	4.996757e+00	-1.320493e-03	5.000000e+00	
593	2.902747e-08	4.996769e+00	-1.193530e-03	5.000000e+00	
594	2.907747e-08	4.996757e+00	-1.320038e-03	5.000000e+00	
595	2.912747e-08	4.996769e+00	-1.193931e-03	5.000000e+00	
596	2.917747e-08	4.996757e+00	-1.319573e-03	5.000000e+00	
597	2.922747e-08	4.996769e+00	-1.194422e-03	5.000000e+00	
598	2.927747e-08	4.996757e+00	-1.319072e-03	5.000000e+00	
599	2.932747e-08	4.996769e+00	-1.194715e-03	5.000000e+00	
600	2.937747e-08	4.996757e+00	-1.318530e-03	5.000000e+00	
601	2.942747e-08	4.996769e+00	-1.195172e-03	5.000000e+00	
602	2.947747e-08	4.996758e+00	-1.318196e-03	5.000000e+00	
603	2.952747e-08	4.996769e+00	-1.195650e-03	5.000000e+00	
604	2.957747e-08	4.996757e+00	-1.317801e-03	5.000000e+00	
605	2.962747e-08	4.996769e+00	-1.196136e-03	5.000000e+00	
606	2.967747e-08	4.996758e+00	-1.317208e-03	5.000000e+00	
607	2.972747e-08	4.996769e+00	-1.196510e-03	5.000000e+00	
608	2.977747e-08	4.996758e+00	-1.316765e-03	5.000000e+00	
609	2.982747e-08	4.996769e+00	-1.196941e-03	5.000000e+00	
610	2.987747e-08	4.996758e+00	-1.316406e-03	5.000000e+00	
611	2.992747e-08	4.996769e+00	-1.197287e-03	5.000000e+00	
612	2.997747e-08	4.996758e+00	-1.315868e-03	5.000000e+00	
613	3.002747e-08	4.996770e+00	-1.197719e-03	5.000000e+00	
614	3.007747e-08	4.996758e+00	-1.315410e-03	5.000000e+00	
615	3.012747e-08	4.996770e+00	-1.198228e-03	5.000000e+00	
616	3.017747e-08	4.996758e+00	-1.315032e-03	5.000000e+00	
617	3.022747e-08	4.996769e+00	-1.198704e-03	5.000000e+00	
618	3.027747e-08	4.996758e+00	-1.314597e-03	5.000000e+00	
619	3.032747e-08	4.996769e+00	-1.199058e-03	5.000000e+00	
620	3.037747e-08	4.996758e+00	-1.314068e-03	5.000000e+00	
621	3.042747e-08	4.996769e+00	-1.199533e-03	5.000000e+00	
622	3.047747e-08	4.996758e+00	-1.313621e-03	5.000000e+00	
623	3.052747e-08	4.996769e+00	-1.199949e-03	5.000000e+00	
624	3.057747e-08	4.996758e+00	-1.313135e-03	5.000000e+00	
625	3.062747e-08	4.996769e+00	-1.200374e-03	5.000000e+00	
626	3.067747e-08	4.996758e+00	-1.312636e-03	5.000000e+00	
627	3.072747e-08	4.996769e+00	-1.200862e-03	5.000000e+00	
628	3.077747e-08	4.996759e+00	-1.312247e-03	5.000000e+00	
629	3.082747e-08	4.996769e+00	-1.201320e-03	5.000000e+00	
630	3.087747e-08	4.996759e+00	-1.311843e-03	5.000000e+00	
631	3.092747e-08	4.996769e+00	-1.201739e-03	5.000000e+00	
632	3.097747e-08	4.996759e+00	-1.311341e-03	5.000000e+00	
633	3.102747e-08	4.996769e+00	-1.202217e-03	5.000000e+00	
634	3.107747e-08	4.996759e+00	-1.310873e-03	5.000000e+00	

Index   time            v(5)            v(11)           v(13)           
--------------------------------------------------------------------------------
635	3.112747e-08	4.996769e+00	-1.202703e-03	5.000000e+00	
636	3.117747e-08	4.996759e+00	-1.310414e-03	5.000000e+00	
637	3.122747e-08	4.996769e+00	-1.203164e-03	5.000000e+00	
638	3.127747e-08	4.996759e+00	-1.309950e-03	5.000000e+00	
639	3.132747e-08	4.996769e+00	-1.203629e-03	5.000000e+00	
640	3.137747e-08	4.996759e+00	-1.309572e-03	5.000000e+00	
641	3.142747e-08	4.996769e+00	-1.204040e-03	5.000000e+00	
642	3.147747e-08	4.996759e+00	-1.309118e-03	5.000000e+00	
643	3.152747e-08	4.996769e+00	-1.204505e-03	5.000000e+00	
644	3.157747e-08	4.996759e+00	-1.308642e-03	5.000000e+00	
645	3.162747e-08	4.996769e+00	-1.204887e-03	5.000000e+00	
646	3.167747e-08	4.996759e+00	-1.308255e-03	5.000000e+00	
647	3.172747e-08	4.996769e+00	-1.205252e-03	5.000000e+00	
648	3.177747e-08	4.996759e+00	-1.307958e-03	5.000000e+00	
649	3.182747e-08	4.996769e+00	-1.205677e-03	5.000000e+00	
650	3.187747e-08	4.996759e+00	-1.307455e-03	5.000000e+00	
651	3.190000e-08	4.996910e+00	-1.032598e-03	5.000000e+00	
652	3.190500e-08	4.996812e+00	-1.203611e-03	5.000000e+00	
653	3.191500e-08	4.996709e+00	-1.266965e-03	5.000000e+00	
654	3.193500e-08	4.996678e+00	-1.361666e-03	5.000000e+00	
655	3.197500e-08	5.012022e+00	-1.145345e-03	5.000000e+00	
656	3.202500e-08	5.082097e+00	-1.004442e-02	4.999999e+00	
657	3.207500e-08	5.218215e+00	-5.643960e-02	4.999997e+00	
658	3.210000e-08	5.301789e+00	-9.822243e-02	4.999996e+00	
659	3.210500e-08	5.307363e+00	-1.103367e-01	4.999995e+00	
660	3.211500e-08	5.309406e+00	-1.342192e-01	4.999995e+00	
661	3.213500e-08	5.301028e+00	-1.815007e-01	4.999995e+00	
662	3.217500e-08	5.275794e+00	-2.821190e-01	4.999995e+00	
663	3.222500e-08	5.223258e+00	-3.422502e-01	5.000000e+00	
664	3.227500e-08	5.188180e+00	-4.628567e-01	4.999993e+00	
665	3.232500e-08	5.149334e+00	-5.898713e-01	5.000005e+00	
666	3.237500e-08	5.108516e+00	-7.371054e-01	5.000002e+00	
667	3.242500e-08	5.074469e+00	-7.657564e-01	5.000032e+00	
668	3.247500e-08	5.039246e+00	-5.089217e-01	5.000102e+00	
669	3.252500e-08	4.994733e+00	1.857006e-02	5.000151e+00	
670	3.257500e-08	4.924289e+00	5.070893e-01	5.000103e+00	
671	3.262500e-08	4.892470e+00	4.755469e-01	4.999927e+00	
672	3.267500e-08	4.915797e+00	4.506483e-01	5.000079e+00	
673	3.272500e-08	4.880257e+00	4.476365e-01	4.999956e+00	
674	3.277500e-08	4.779641e+00	4.190541e-01	5.000048e+00	
675	3.282500e-08	4.648351e+00	4.218696e-01	4.999981e+00	
676	3.287500e-08	4.489578e+00	3.926056e-01	5.000024e+00	
677	3.292500e-08	4.412487e+00	3.631178e-01	5.000007e+00	
678	3.297500e-08	4.534698e+00	3.223746e-01	5.000035e+00	
679	3.302500e-08	4.834549e+00	2.948843e-01	5.000004e+00	
680	3.307500e-08	4.907203e+00	2.716046e-01	5.000008e+00	
681	3.312500e-08	4.816795e+00	2.886634e-01	5.000023e+00	
682	3.317500e-08	4.793597e+00	2.605716e-01	5.000002e+00	
683	3.322500e-08	4.765093e+00	2.211729e-01	5.000029e+00	
684	3.327500e-08	4.795566e+00	1.957599e-01	5.000020e+00	
685	3.332500e-08	4.770538e+00	1.919032e-01	5.000047e+00	
686	3.337500e-08	4.665498e+00	1.496491e-01	4.999962e+00	
687	3.342500e-08	4.472633e+00	1.676084e-01	5.000030e+00	
688	3.347500e-08	4.273638e+00	2.703015e-01	5.000056e+00	
689	3.352500e-08	4.124448e+00	3.560085e-01	5.000061e+00	
690	3.357500e-08	4.030954e+00	2.963052e-01	4.999962e+00	
691	3.362500e-08	3.922485e+00	2.642194e-01	5.000050e+00	
692	3.367500e-08	3.729456e+00	2.493465e-01	4.999954e+00	

Index   time            v(5)            v(11)           v(13)           
--------------------------------------------------------------------------------
693	3.372500e-08	3.466074e+00	2.677733e-01	5.000034e+00	
694	3.377500e-08	3.296246e+00	3.091507e-01	4.999995e+00	
695	3.382500e-08	3.305861e+00	3.351112e-01	5.000060e+00	
696	3.387500e-08	3.368263e+00	3.352649e-01	5.000000e+00	
697	3.392500e-08	3.428474e+00	2.925745e-01	4.999998e+00	
698	3.397500e-08	3.409819e+00	2.734855e-01	4.999992e+00	
699	3.402500e-08	3.292350e+00	2.841798e-01	5.000008e+00	
700	3.407500e-08	3.181736e+00	3.121504e-01	5.000019e+00	
701	3.412500e-08	3.162968e+00	2.994963e-01	4.999990e+00	
702	3.417500e-08	3.144582e+00	2.437103e-01	4.999985e+00	
703	3.422500e-08	3.035004e+00	1.324020e-01	4.999967e+00	
704	3.427500e-08	2.793096e+00	7.866729e-02	5.000005e+00	
705	3.432500e-08	2.528540e+00	8.175657e-02	4.999997e+00	
706	3.437500e-08	2.327153e+00	1.167245e-01	5.000016e+00	
707	3.442500e-08	2.201474e+00	1.308393e-01	4.999993e+00	
708	3.447500e-08	2.090019e+00	1.018149e-01	4.999994e+00	
709	3.452500e-08	1.932528e+00	5.737854e-02	4.999987e+00	
710	3.457500e-08	1.744149e+00	6.820067e-02	5.000015e+00	
711	3.462500e-08	1.590622e+00	1.277869e-01	5.000012e+00	
712	3.467500e-08	1.520874e+00	1.892945e-01	5.000016e+00	
713	3.472500e-08	1.520374e+00	2.022984e-01	4.999993e+00	
714	3.477500e-08	1.530022e+00	1.665529e-01	4.999991e+00	
715	3.482500e-08	1.483119e+00	1.346029e-01	4.999994e+00	
716	3.487500e-08	1.402066e+00	1.225668e-01	5.000000e+00	
717	3.492500e-08	1.333936e+00	1.421103e-01	5.000008e+00	
718	3.497500e-08	1.301935e+00	1.493023e-01	4.999996e+00	
719	3.502500e-08	1.274017e+00	1.252095e-01	4.999993e+00	
720	3.507500e-08	1.209397e+00	7.510598e-02	4.999985e+00	
721	3.512500e-08	1.098337e+00	4.233003e-02	4.999999e+00	
722	3.517500e-08	9.714210e-01	3.330063e-02	4.999998e+00	
723	3.522500e-08	8.582490e-01	4.716906e-02	5.000008e+00	
724	3.527500e-08	7.742922e-01	5.343849e-02	4.999996e+00	
725	3.532500e-08	7.050382e-01	4.450769e-02	4.999999e+00	
726	3.537500e-08	6.324545e-01	2.739518e-02	4.999994e+00	
727	3.542500e-08	5.564214e-01	2.122689e-02	5.000003e+00	
728	3.547500e-08	4.921164e-01	3.400766e-02	5.000003e+00	
729	3.552500e-08	4.534837e-01	5.547604e-02	5.000006e+00	
730	3.557500e-08	4.356509e-01	6.745980e-02	5.000000e+00	
731	3.562500e-08	4.239785e-01	6.391268e-02	4.999999e+00	
732	3.567500e-08	4.074748e-01	5.459256e-02	4.999997e+00	
733	3.572500e-08	3.884776e-01	4.961558e-02	5.000000e+00	
734	3.577500e-08	3.708226e-01	5.441288e-02	5.000002e+00	
735	3.582500e-08	3.568181e-01	5.786454e-02	5.000000e+00	
736	3.587500e-08	3.391948e-01	5.509689e-02	4.999999e+00	
737	3.592500e-08	3.150606e-01	4.383453e-02	4.999996e+00	
738	3.597500e-08	2.847798e-01	3.343185e-02	4.999999e+00	
739	3.602500e-08	2.526179e-01	2.691050e-02	4.999998e+00	
740	3.607500e-08	2.214852e-01	2.673300e-02	5.000001e+00	
741	3.612500e-08	1.941662e-01	2.628800e-02	4.999999e+00	
742	3.617500e-08	1.695680e-01	2.406761e-02	5.000000e+00	
743	3.622500e-08	1.483060e-01	1.889326e-02	4.999998e+00	
744	3.627500e-08	1.307856e-01	1.616500e-02	5.000001e+00	
745	3.632500e-08	1.181396e-01	1.762917e-02	5.000000e+00	
746	3.637500e-08	1.087893e-01	2.208320e-02	5.000002e+00	
747	3.642500e-08	1.015266e-01	2.546647e-02	5.000000e+00	
748	3.647500e-08	9.553502e-02	2.602087e-02	5.000000e+00	
749	3.652500e-08	9.094712e-02	2.462952e-02	4.999999e+00	
750	3.657500e-08	8.738427e-02	2.345261e-02	5.000000e+00	

Index   time            v(5)            v(11)           v(13)           
--------------------------------------------------------------------------------
751	3.662500e-08	8.378499e-02	2.375883e-02	5.000000e+00	
752	3.667500e-08	7.905384e-02	2.401609e-02	5.000000e+00	
753	3.672500e-08	7.263815e-02	2.329580e-02	5.000000e+00	
754	3.677500e-08	6.575629e-02	2.072432e-02	4.999999e+00	
755	3.682500e-08	5.912909e-02	1.810442e-02	5.000000e+00	
756	3.687500e-08	5.332640e-02	1.590377e-02	4.999999e+00	
757	3.692500e-08	4.765926e-02	1.521394e-02	5.000000e+00	
758	3.697500e-08	4.208293e-02	1.466607e-02	5.000000e+00	
759	3.702500e-08	3.658243e-02	1.409584e-02	5.000000e+00	
760	3.707500e-08	3.221882e-02	1.280644e-02	4.999999e+00	
761	3.712500e-08	2.917402e-02	1.199018e-02	5.000000e+00	
762	3.717500e-08	2.720637e-02	1.172307e-02	5.000000e+00	
763	3.722500e-08	2.527956e-02	1.217106e-02	5.000000e+00	
764	3.727500e-08	2.326508e-02	1.254020e-02	5.000000e+00	
765	3.732500e-08	2.135920e-02	1.250611e-02	5.000000e+00	
766	3.737500e-08	2.001008e-02	1.209651e-02	5.000000e+00	
767	3.742500e-08	1.915119e-02	1.158528e-02	5.000000e+00	
768	3.747500e-08	1.834811e-02	1.135817e-02	5.000000e+00	
769	3.752500e-08	1.719520e-02	1.112215e-02	5.000000e+00	
770	3.757500e-08	1.559256e-02	1.094000e-02	5.000000e+00	
771	3.762500e-08	1.399596e-02	1.035852e-02	5.000000e+00	
772	3.767500e-08	1.263236e-02	9.828847e-03	5.000000e+00	
773	3.772500e-08	1.163994e-02	9.130313e-03	5.000000e+00	
774	3.777500e-08	1.063017e-02	8.828624e-03	5.000000e+00	
775	3.782500e-08	9.553149e-03	8.445694e-03	5.000000e+00	
776	3.787500e-08	8.360322e-03	8.299004e-03	5.000000e+00	
777	3.792500e-08	7.435003e-03	7.890418e-03	5.000000e+00	
778	3.797500e-08	6.796965e-03	7.696520e-03	5.000000e+00	
779	3.802500e-08	6.429992e-03	7.387410e-03	5.000000e+00	
780	3.807500e-08	6.039015e-03	7.365713e-03	5.000000e+00	
781	3.812500e-08	5.608026e-03	7.229823e-03	5.000000e+00	
782	3.817500e-08	5.139983e-03	7.234042e-03	5.000000e+00	
783	3.822500e-08	4.786475e-03	7.045579e-03	5.000000e+00	
784	3.827500e-08	4.548006e-03	6.943523e-03	5.000000e+00	
785	3.832500e-08	4.352660e-03	6.726601e-03	5.000000e+00	
786	3.837500e-08	4.085910e-03	6.629836e-03	5.000000e+00	
787	3.842500e-08	3.710017e-03	6.456320e-03	5.000000e+00	
788	3.847500e-08	3.323878e-03	6.358402e-03	5.000000e+00	
789	3.852500e-08	2.986427e-03	6.161917e-03	5.000000e+00	
790	3.857500e-08	2.753779e-03	6.027738e-03	5.000000e+00	
791	3.862500e-08	2.535061e-03	5.841419e-03	5.000000e+00	
792	3.867500e-08	2.326704e-03	5.754172e-03	5.000000e+00	
793	3.872500e-08	2.080844e-03	5.626823e-03	5.000000e+00	
794	3.877500e-08	1.888028e-03	5.581240e-03	5.000000e+00	
795	3.882500e-08	1.730623e-03	5.466384e-03	5.000000e+00	
796	3.887500e-08	1.643078e-03	5.426357e-03	5.000000e+00	
797	3.892500e-08	1.547749e-03	5.313437e-03	5.000000e+00	
798	3.897500e-08	1.457883e-03	5.296708e-03	5.000000e+00	
799	3.902500e-08	1.337808e-03	5.200920e-03	5.000000e+00	
800	3.907500e-08	1.239592e-03	5.200603e-03	5.000000e+00	
801	3.912500e-08	1.149864e-03	5.093627e-03	5.000000e+00	
802	3.917500e-08	1.087276e-03	5.085825e-03	5.000000e+00	
803	3.922500e-08	1.012411e-03	4.968147e-03	5.000000e+00	
804	3.927500e-08	9.339039e-04	4.973692e-03	5.000000e+00	
805	3.932500e-08	8.437409e-04	4.867764e-03	5.000000e+00	
806	3.937500e-08	7.676453e-04	4.887440e-03	5.000000e+00	
807	3.942500e-08	7.022544e-04	4.778888e-03	5.000000e+00	
808	3.947500e-08	6.517611e-04	4.798226e-03	5.000000e+00	

Index   time            v(5)            v(11)           v(13)           
--------------------------------------------------------------------------------
809	3.952500e-08	6.012476e-04	4.689504e-03	5.000000e+00	
810	3.957500e-08	5.520224e-04	4.720291e-03	5.000000e+00	
811	3.962500e-08	5.017957e-04	4.623859e-03	5.000000e+00	
812	3.967500e-08	4.607762e-04	4.665175e-03	5.000000e+00	
813	3.972500e-08	4.256496e-04	4.571250e-03	5.000000e+00	
814	3.977500e-08	3.996555e-04	4.610984e-03	5.000000e+00	
815	3.982500e-08	3.718607e-04	4.518741e-03	5.000000e+00	
816	3.987500e-08	3.472407e-04	4.563661e-03	5.000000e+00	
817	3.992500e-08	3.179643e-04	4.479438e-03	5.000000e+00	
818	3.997500e-08	2.959767e-04	4.527281e-03	5.000000e+00	
819	4.002500e-08	2.713471e-04	4.443550e-03	5.000000e+00	
820	4.007500e-08	2.548170e-04	4.487982e-03	5.000000e+00	
821	4.012500e-08	2.311100e-04	4.405745e-03	5.000000e+00	
822	4.017500e-08	2.146652e-04	4.452653e-03	5.000000e+00	
823	4.022500e-08	1.901310e-04	4.375310e-03	5.000000e+00	
824	4.027500e-08	1.759408e-04	4.423952e-03	5.000000e+00	
825	4.032500e-08	1.551693e-04	4.347933e-03	5.000000e+00	
826	4.037500e-08	1.463406e-04	4.396030e-03	5.000000e+00	
827	4.042500e-08	1.285687e-04	4.322399e-03	5.000000e+00	
828	4.047500e-08	1.219025e-04	4.373346e-03	5.000000e+00	
829	4.052500e-08	1.055143e-04	4.303155e-03	5.000000e+00	
830	4.057500e-08	1.007495e-04	4.355971e-03	5.000000e+00	
831	4.062500e-08	8.672143e-05	4.286349e-03	5.000000e+00	
832	4.067500e-08	8.454577e-05	4.339100e-03	5.000000e+00	
833	4.072500e-08	7.199859e-05	4.270174e-03	5.000000e+00	
834	4.077500e-08	6.996104e-05	4.324776e-03	5.000000e+00	
835	4.082500e-08	5.741867e-05	4.256717e-03	5.000000e+00	
836	4.087500e-08	5.546732e-05	4.312512e-03	5.000000e+00	
837	4.092500e-08	4.409989e-05	4.244122e-03	5.000000e+00	
838	4.097500e-08	4.313690e-05	4.300524e-03	5.000000e+00	
839	4.102500e-08	3.286436e-05	4.232470e-03	5.000000e+00	
840	4.107500e-08	3.248276e-05	4.290273e-03	5.000000e+00	
841	4.112500e-08	2.285993e-05	4.223045e-03	5.000000e+00	
842	4.117500e-08	2.284478e-05	4.281976e-03	5.000000e+00	
843	4.122500e-08	1.430672e-05	4.214833e-03	5.000000e+00	
844	4.127500e-08	1.529381e-05	4.274007e-03	5.000000e+00	
845	4.132500e-08	7.667891e-06	4.207366e-03	5.000000e+00	
846	4.137500e-08	8.823918e-06	4.267426e-03	5.000000e+00	
847	4.142500e-08	1.469148e-06	4.201293e-03	5.000000e+00	
848	4.147500e-08	2.851074e-06	4.261712e-03	5.000000e+00	
849	4.152500e-08	-4.058512e-06	4.195991e-03	5.000000e+00	
850	4.157500e-08	-1.894557e-06	4.256190e-03	5.000000e+00	
851	4.162500e-08	-8.310229e-06	4.191097e-03	5.000000e+00	
852	4.167500e-08	-6.251337e-06	4.251782e-03	5.000000e+00	
853	4.172500e-08	-1.258100e-05	4.187203e-03	5.000000e+00	
854	4.177500e-08	-1.007628e-05	4.247669e-03	5.000000e+00	
855	4.182500e-08	-1.607535e-05	4.183539e-03	5.000000e+00	
856	4.187500e-08	-1.325793e-05	4.243993e-03	5.000000e+00	
857	4.192500e-08	-1.909826e-05	4.180417e-03	5.000000e+00	
858	4.197500e-08	-1.601187e-05	4.240824e-03	5.000000e+00	
859	4.202500e-08	-2.195596e-05	4.177777e-03	5.000000e+00	
860	4.207500e-08	-1.872194e-05	4.237863e-03	5.000000e+00	
861	4.212500e-08	-2.431998e-05	4.175577e-03	5.000000e+00	
862	4.217500e-08	-2.070952e-05	4.235357e-03	5.000000e+00	
863	4.222500e-08	-2.619216e-05	4.173485e-03	5.000000e+00	
864	4.227500e-08	-2.273707e-05	4.233113e-03	5.000000e+00	
865	4.232500e-08	-2.794958e-05	4.171724e-03	5.000000e+00	
866	4.237500e-08	-2.422293e-05	4.231222e-03	5.000000e+00	

Index   time            v(5)            v(11)           v(13)           
--------------------------------------------------------------------------------
867	4.242500e-08	-2.937901e-05	4.170181e-03	5.000000e+00	
868	4.247500e-08	-2.544899e-05	4.229569e-03	5.000000e+00	
869	4.252500e-08	-3.067002e-05	4.169010e-03	5.000000e+00	
870	4.257500e-08	-2.678445e-05	4.227999e-03	5.000000e+00	
871	4.262500e-08	-3.170723e-05	4.167852e-03	5.000000e+00	
872	4.267500e-08	-2.786710e-05	4.226848e-03	5.000000e+00	
873	4.272500e-08	-3.277218e-05	4.166824e-03	5.000000e+00	
874	4.277500e-08	-2.893466e-05	4.225637e-03	5.000000e+00	
875	4.282500e-08	-3.359503e-05	4.166236e-03	5.000000e+00	
876	4.287500e-08	-2.966031e-05	4.224509e-03	5.000000e+00	
877	4.292500e-08	-3.441613e-05	4.165412e-03	5.000000e+00	
878	4.297500e-08	-3.030120e-05	4.223766e-03	5.000000e+00	
879	4.302500e-08	-3.485681e-05	4.164974e-03	5.000000e+00	
880	4.307500e-08	-3.093269e-05	4.222784e-03	5.000000e+00	
881	4.312500e-08	-3.546513e-05	4.164364e-03	5.000000e+00	
882	4.317500e-08	-3.150240e-05	4.222065e-03	5.000000e+00	
883	4.322500e-08	-3.597889e-05	4.163866e-03	5.000000e+00	
884	4.327500e-08	-3.197887e-05	4.221239e-03	5.000000e+00	
885	4.332500e-08	-3.630224e-05	4.163566e-03	5.000000e+00	
886	4.337500e-08	-3.243404e-05	4.220525e-03	5.000000e+00	
887	4.342500e-08	-3.676153e-05	4.163411e-03	5.000000e+00	
888	4.347500e-08	-3.277495e-05	4.220154e-03	5.000000e+00	
889	4.352500e-08	-3.702207e-05	4.163274e-03	5.000000e+00	
890	4.357500e-08	-3.303848e-05	4.219411e-03	5.000000e+00	
891	4.362500e-08	-3.725298e-05	4.163071e-03	5.000000e+00	
892	4.367500e-08	-3.332447e-05	4.218958e-03	5.000000e+00	
893	4.372500e-08	-3.756576e-05	4.162959e-03	5.000000e+00	
894	4.377500e-08	-3.365727e-05	4.218569e-03	5.000000e+00	
895	4.382500e-08	-3.782931e-05	4.162954e-03	5.000000e+00	
896	4.387500e-08	-3.386179e-05	4.218155e-03	5.000000e+00	
897	4.392500e-08	-3.777580e-05	4.162914e-03	5.000000e+00	
898	4.397500e-08	-3.394350e-05	4.217629e-03	5.000000e+00	
899	4.402500e-08	-3.817767e-05	4.162887e-03	5.000000e+00	
900	4.407500e-08	-3.418979e-05	4.217286e-03	5.000000e+00	
901	4.412500e-08	-3.816502e-05	4.162954e-03	5.000000e+00	
902	4.417500e-08	-3.435085e-05	4.216812e-03	5.000000e+00	
903	4.422500e-08	-3.834588e-05	4.162947e-03	5.000000e+00	
904	4.427500e-08	-3.446971e-05	4.216516e-03	5.000000e+00	
905	4.432500e-08	-3.845910e-05	4.163085e-03	5.000000e+00	
906	4.437500e-08	-3.457852e-05	4.216309e-03	5.000000e+00	
907	4.442500e-08	-3.845487e-05	4.163164e-03	5.000000e+00	
908	4.447500e-08	-3.460011e-05	4.215800e-03	5.000000e+00	
909	4.452500e-08	-3.851124e-05	4.163334e-03	5.000000e+00	
910	4.457500e-08	-3.464094e-05	4.215588e-03	5.000000e+00	
911	4.462500e-08	-3.868220e-05	4.163372e-03	5.000000e+00	
912	4.467500e-08	-3.499279e-05	4.215287e-03	5.000000e+00	
913	4.472500e-08	-3.868036e-05	4.163398e-03	5.000000e+00	
914	4.477500e-08	-3.493081e-05	4.215159e-03	5.000000e+00	
915	4.482500e-08	-3.865885e-05	4.163660e-03	5.000000e+00	
916	4.487500e-08	-3.489831e-05	4.214840e-03	5.000000e+00	
917	4.492500e-08	-3.861897e-05	4.163867e-03	5.000000e+00	
918	4.497500e-08	-3.500118e-05	4.214633e-03	5.000000e+00	
919	4.502500e-08	-3.875573e-05	4.163986e-03	5.000000e+00	
920	4.507500e-08	-3.515260e-05	4.214383e-03	5.000000e+00	
921	4.512500e-08	-3.869979e-05	4.164259e-03	5.000000e+00	
922	4.517500e-08	-3.508256e-05	4.213890e-03	5.000000e+00	
923	4.522500e-08	-3.886379e-05	4.164360e-03	5.000000e+00	
924	4.527500e-08	-3.524662e-05	4.213797e-03	5.000000e+00	

Index   time            v(5)            v(11)           v(13)           
--------------------------------------------------------------------------------
925	4.532500e-08	-3.869006e-05	4.164415e-03	5.000000e+00	
926	4.537500e-08	-3.513435e-05	4.213610e-03	5.000000e+00	
927	4.542500e-08	-3.872731e-05	4.164851e-03	5.000000e+00	
928	4.547500e-08	-3.506983e-05	4.213524e-03	5.000000e+00	
929	4.552500e-08	-3.868651e-05	4.164806e-03	5.000000e+00	
930	4.557500e-08	-3.524582e-05	4.213292e-03	5.000000e+00	
931	4.562500e-08	-3.881254e-05	4.165272e-03	5.000000e+00	
932	4.567500e-08	-3.520005e-05	4.212929e-03	5.000000e+00	
933	4.572500e-08	-3.866529e-05	4.165405e-03	5.000000e+00	
934	4.577500e-08	-3.526364e-05	4.212644e-03	5.000000e+00	
935	4.582500e-08	-3.867522e-05	4.165373e-03	5.000000e+00	
936	4.587500e-08	-3.540892e-05	4.212536e-03	5.000000e+00	
937	4.592500e-08	-3.885670e-05	4.165733e-03	5.000000e+00	
938	4.597500e-08	-3.547475e-05	4.212198e-03	5.000000e+00	
939	4.602500e-08	-3.881927e-05	4.165832e-03	5.000000e+00	
940	4.607500e-08	-3.528976e-05	4.212037e-03	5.000000e+00	
941	4.612500e-08	-3.867519e-05	4.165969e-03	5.000000e+00	
942	4.617500e-08	-3.539698e-05	4.212001e-03	5.000000e+00	
943	4.622500e-08	-3.864646e-05	4.166284e-03	5.000000e+00	
944	4.627500e-08	-3.539438e-05	4.211628e-03	5.000000e+00	
945	4.632500e-08	-3.866217e-05	4.166515e-03	5.000000e+00	
946	4.637500e-08	-3.525521e-05	4.211353e-03	5.000000e+00	
947	4.642500e-08	-3.867731e-05	4.166738e-03	5.000000e+00	
948	4.647500e-08	-3.559970e-05	4.211432e-03	5.000000e+00	
949	4.652500e-08	-3.871155e-05	4.166876e-03	5.000000e+00	
950	4.657500e-08	-3.536721e-05	4.210981e-03	5.000000e+00	
951	4.662500e-08	-3.855085e-05	4.167140e-03	5.000000e+00	
952	4.667500e-08	-3.536767e-05	4.210787e-03	5.000000e+00	
953	4.672500e-08	-3.869406e-05	4.167180e-03	5.000000e+00	
954	4.677500e-08	-3.558785e-05	4.210707e-03	5.000000e+00	
955	4.682500e-08	-3.859813e-05	4.167342e-03	5.000000e+00	
956	4.687500e-08	-3.562155e-05	4.210386e-03	5.000000e+00	
957	4.692500e-08	-3.872136e-05	4.167722e-03	5.000000e+00	
958	4.697500e-08	-3.540252e-05	4.210335e-03	5.000000e+00	
959	4.702500e-08	-3.857143e-05	4.167713e-03	5.000000e+00	
960	4.707500e-08	-3.556849e-05	4.209930e-03	5.000000e+00	
961	4.712500e-08	-3.854155e-05	4.168091e-03	5.000000e+00	
962	4.717500e-08	-3.553121e-05	4.209883e-03	5.000000e+00	
963	4.722500e-08	-3.868493e-05	4.168288e-03	5.000000e+00	
964	4.727500e-08	-3.565976e-05	4.209667e-03	5.000000e+00	
965	4.732500e-08	-3.860725e-05	4.168496e-03	5.000000e+00	
966	4.737500e-08	-3.549010e-05	4.209395e-03	5.000000e+00	
967	4.742500e-08	-3.851989e-05	4.168604e-03	5.000000e+00	
968	4.747500e-08	-3.562760e-05	4.209378e-03	5.000000e+00	
969	4.752500e-08	-3.851188e-05	4.168886e-03	5.000000e+00	
970	4.757500e-08	-3.561628e-05	4.209044e-03	5.000000e+00	
971	4.762500e-08	-3.860699e-05	4.168962e-03	5.000000e+00	
972	4.767500e-08	-3.562116e-05	4.208887e-03	5.000000e+00	
973	4.772500e-08	-3.851295e-05	4.169222e-03	5.000000e+00	
974	4.777500e-08	-3.563698e-05	4.208653e-03	5.000000e+00	
975	4.782500e-08	-3.848750e-05	4.169406e-03	5.000000e+00	
976	4.787500e-08	-3.566175e-05	4.208395e-03	5.000000e+00	
977	4.790000e-08	-4.767944e-05	4.150563e-03	5.000000e+00	




