
Circuit: ************ test circuit for transmission simulation **************

Warning -- Level not specified on line "vto=-0.8v kp=21u gamma=0.45 phi=0.61 lambda=0.00                  phi=0.61 lambda=0.00 cgso=0 cgdo=0 cgbo=0                  cj=0 cjsw=0 tox=18000n nsub=3e16 ld=0.0u"
Using level 1.
Doing analysis at TEMP = 300.150000 and TNOM = 300.150000

Initial Transient Solution
--------------------------

Node                                   Voltage
----                                   -------
1                                            0
2                                            0
6                                            0
3                                            0
7                                            0
4                                            0
8                                            0
10                                           0
5                                            0
11                                           0
13                                 3.59096e-19
12                                           0
14                                 4.85429e-19
9                                            0
1:1:9                                        0
1:1:10                                       0
1:1:11                                       0
1:1:12                                       0
1:9                                          0
1:10                                         0
1:11                                         0
1:12                                         0
1:1:13                                       0
1:1:14                                       0
1:1:15                                       0
1:1:16                                       0
1:1:17                                       0
1:1:18                                       0
1:1:19                                       0
1:1:20                                       0
1:1:21                                       0
1:1:22                                       0
1:1:23                                       0
1:1:24                                       0
1:13                                         0
1:14                                         0
1:15                                         0
1:16                                         0
1:2:9                                        0
1:2:10                                       0
1:2:11                                       0
1:2:12                                       0
1:2:13                                       0
1:2:14                                       0
1:2:15                                       0
1:2:16                                       0
1:2:17                                       0
1:2:18                                       0
1:2:19                                       0
1:2:20                                       0
1:2:21                                       0
1:2:22                                       0
1:2:23                                       0
1:2:24                                       0
v:1:2:4#branch                               0
v:1:2:3#branch                               0
v:1:2:2#branch                               0
v:1:2:1#branch                               0
v:1:1:4#branch                               0
v:1:1:3#branch                               0
v:1:1:2#branch                               0
v:1:1:1#branch                               0
e:1:2:16#branch                              0
e:1:2:15#branch                              0
e:1:2:14#branch                              0
e:1:2:13#branch                              0
e:1:2:12#branch                              0
e:1:2:11#branch                              0
e:1:2:10#branch                              0
e:1:2:9#branch                               0
e:1:2:8#branch                               0
e:1:2:7#branch                               0
e:1:2:6#branch                               0
e:1:2:5#branch                               0
e:1:2:4#branch                               0
e:1:2:3#branch                               0
e:1:2:2#branch                               0
e:1:2:1#branch                               0
e:1:1:16#branch                              0
e:1:1:15#branch                              0
e:1:1:14#branch                              0
e:1:1:13#branch                              0
e:1:1:12#branch                              0
e:1:1:11#branch                              0
e:1:1:10#branch                              0
e:1:1:9#branch                               0
e:1:1:8#branch                               0
e:1:1:7#branch                               0
e:1:1:6#branch                               0
e:1:1:5#branch                               0
e:1:1:4#branch                               0
e:1:1:3#branch                               0
e:1:1:2#branch                               0
e:1:1:1#branch                               0
vs2#branch                                   0
vs1#branch                                   0
v3#branch                                    0
vdd#branch                        -7.40149e-31

      ************ test circuit for transmission simulation **************
      Transient Analysis  Sat Aug 27 16:42:21  2005
--------------------------------------------------------------------------------
Index   time            v(5)            v(11)           v(13)           
--------------------------------------------------------------------------------
0	0.000000e+00	0.000000e+00	0.000000e+00	3.590963e-19	
1	1.000000e-12	2.139249e-12	4.713166e-04	1.394454e-11	
2	2.000000e-12	5.852883e-12	7.076141e-04	4.014125e-11	
3	4.000000e-12	1.579852e-11	9.406786e-04	1.163499e-10	
4	8.000000e-12	4.622107e-11	7.305773e-04	4.116583e-10	
5	1.600000e-11	-5.844341e-06	5.683916e-04	1.573840e-09	
6	2.808509e-11	1.780533e-02	6.756282e-04	1.982253e-01	
7	4.370877e-11	1.186381e-01	9.284253e-04	1.477146e+00	
8	5.964790e-11	3.303728e-01	1.192885e-03	2.866799e+00	
9	6.074844e-11	3.491237e-01	1.002049e-03	2.917925e+00	
10	6.294953e-11	3.876867e-01	8.475404e-04	3.024355e+00	
11	6.349980e-11	3.977183e-01	8.569535e-04	3.052253e+00	
12	6.363737e-11	4.002343e-01	8.589599e-04	3.059243e+00	
13	6.391250e-11	4.052829e-01	8.624916e-04	3.073249e+00	
14	6.398129e-11	4.065512e-01	8.632226e-04	3.076760e+00	
15	6.411885e-11	4.090920e-01	8.646239e-04	3.083789e+00	
16	6.439399e-11	4.141983e-01	8.670974e-04	3.097882e+00	
17	6.440259e-11	4.143584e-01	8.671679e-04	3.098323e+00	
18	6.441978e-11	4.146787e-01	8.673081e-04	3.099205e+00	
19	6.442408e-11	4.147588e-01	8.673429e-04	3.099426e+00	
20	6.443268e-11	4.149191e-01	8.674124e-04	3.099867e+00	
21	6.444988e-11	4.152396e-01	8.675502e-04	3.100750e+00	
22	6.445041e-11	4.152496e-01	8.675545e-04	3.100778e+00	
23	6.445149e-11	4.152697e-01	8.675631e-04	3.100833e+00	
24	6.445176e-11	4.152747e-01	8.675652e-04	3.100846e+00	
25	6.445183e-11	4.152759e-01	8.675657e-04	3.100850e+00	
26	6.445196e-11	4.152784e-01	8.675668e-04	3.100857e+00	
27	6.445223e-11	4.152834e-01	8.675689e-04	3.100871e+00	
28	6.445224e-11	4.152836e-01	8.675690e-04	3.100871e+00	
29	6.445224e-11	4.152836e-01	8.675690e-04	3.100871e+00	
30	6.445224e-11	4.152836e-01	8.675690e-04	3.100871e+00	
31	6.445224e-11	4.152837e-01	8.675690e-04	3.100871e+00	
32	6.445224e-11	4.152837e-01	8.675690e-04	3.100871e+00	
33	6.445224e-11	4.152837e-01	8.675690e-04	3.100871e+00	
34	6.445224e-11	4.152837e-01	8.675690e-04	3.100871e+00	
35	6.445224e-11	4.152837e-01	8.675690e-04	3.100871e+00	
36	6.445224e-11	4.152837e-01	8.675690e-04	3.100871e+00	
37	6.445224e-11	4.152837e-01	8.675690e-04	3.100871e+00	
38	6.445224e-11	4.152837e-01	8.675690e-04	3.100871e+00	
39	6.445224e-11	4.152837e-01	8.675690e-04	3.100871e+00	
40	6.445224e-11	4.152837e-01	8.675690e-04	3.100871e+00	

CPU time since last call: 0.025 seconds.

Total CPU time: 0.025 seconds.

Current dynamic memory usage = 135168,
Dynamic memory limit = -491521.

