Circuit: mosdriver -- 3 lossy lines txl model -- c load 

Doing analysis at TEMP = 27.000000 and TNOM = 27.000000

Warning: vs: no DC value, transient time 0 value used


No. of Data Rows : 497
                mosdriver -- 3 lossy lines txl model -- c load 
                Transient Analysis  Sun Feb 07 19:00:58  2010
--------------------------------------------------------------------------------
Index   time            v(2)            v(3)            v(4)            
--------------------------------------------------------------------------------
0	0.000000e+00	5.000000e+00	5.000000e+00	1.242558e-09	
1	2.000000e-12	5.000000e+00	5.000000e+00	1.242558e-09	
2	4.000000e-12	5.000000e+00	5.000000e+00	1.242543e-09	
3	8.000000e-12	5.000000e+00	5.000000e+00	1.245466e-09	
4	1.600000e-11	5.000000e+00	5.000000e+00	1.262555e-09	
5	3.200000e-11	5.000001e+00	5.000001e+00	1.340474e-09	
6	6.400000e-11	5.000005e+00	5.000008e+00	1.679891e-09	
7	1.280000e-10	5.000041e+00	5.000062e+00	3.094346e-09	
8	2.280000e-10	5.000154e+00	5.000229e+00	4.125711e-09	
9	3.280000e-10	5.000118e+00	5.000174e+00	-2.58962e-09	
10	4.280000e-10	5.000068e+00	5.000110e+00	3.170042e-09	
11	5.280000e-10	5.000035e+00	5.000059e+00	-1.84303e-09	
12	6.280000e-10	4.999991e+00	5.000000e+00	2.511713e-09	
13	7.280000e-10	4.999962e+00	4.999953e+00	-1.22743e-09	
14	8.280000e-10	4.999924e+00	4.999900e+00	1.970489e-09	
15	9.280000e-10	4.999898e+00	4.999857e+00	-7.32261e-10	
16	1.028000e-09	4.999866e+00	4.999808e+00	1.538286e-09	
17	1.128000e-09	4.999852e+00	4.999772e+00	-2.10601e-10	
18	1.228000e-09	4.999868e+00	4.999750e+00	1.721858e-09	
19	1.328000e-09	4.999860e+00	4.999721e+00	-2.22888e-10	
20	1.428000e-09	4.999813e+00	4.999665e+00	7.786944e-10	
21	1.528000e-09	4.999777e+00	4.999620e+00	1.276023e-10	
22	1.628000e-09	4.999734e+00	4.999569e+00	5.065352e-10	
23	1.728000e-09	4.999700e+00	4.999528e+00	4.127559e-10	
24	1.828000e-09	4.999662e+00	4.999481e+00	3.116747e-10	
25	1.928000e-09	4.999631e+00	4.999444e+00	6.262388e-10	
26	2.028000e-09	4.999596e+00	4.999401e+00	1.823706e-10	
27	2.128000e-09	4.999569e+00	4.999368e+00	1.005133e-09	
28	2.228000e-09	4.999542e+00	4.999337e+00	8.705708e-10	
29	2.328000e-09	4.999521e+00	4.999312e+00	1.055088e-09	
30	2.428000e-09	4.999491e+00	4.999274e+00	-2.47565e-10	
31	2.528000e-09	4.999462e+00	4.999239e+00	7.072365e-10	
32	2.628000e-09	4.999432e+00	4.999201e+00	-3.00623e-10	
33	2.728000e-09	4.999406e+00	4.999168e+00	7.730868e-10	
34	2.828000e-09	4.999378e+00	4.999133e+00	-3.12858e-10	
35	2.928000e-09	4.999354e+00	4.999103e+00	8.101524e-10	
36	3.028000e-09	4.999330e+00	4.999071e+00	-3.00812e-10	
37	3.128000e-09	4.999308e+00	4.999043e+00	8.486718e-10	
38	3.228000e-09	4.999287e+00	4.999015e+00	-1.69307e-10	
39	3.328000e-09	4.999269e+00	4.998990e+00	9.213174e-10	
40	3.428000e-09	4.999249e+00	4.998964e+00	-2.54060e-10	
41	3.528000e-09	4.999228e+00	4.998939e+00	7.827906e-10	
42	3.628000e-09	4.999208e+00	4.998913e+00	-2.37817e-10	
43	3.728000e-09	4.999188e+00	4.998890e+00	7.811733e-10	
44	3.828000e-09	4.999169e+00	4.998866e+00	-1.76162e-10	
45	3.928000e-09	4.999152e+00	4.998845e+00	7.786272e-10	
46	4.028000e-09	4.999134e+00	4.998823e+00	-1.11990e-10	
47	4.128000e-09	4.999118e+00	4.998803e+00	7.844326e-10	
48	4.228000e-09	4.999102e+00	4.998783e+00	2.507934e-12	
49	4.328000e-09	4.999087e+00	4.998766e+00	8.405882e-10	
50	4.428000e-09	4.999073e+00	4.998747e+00	2.750005e-11	
51	4.528000e-09	4.999059e+00	4.998731e+00	7.357245e-10	
52	4.628000e-09	4.999045e+00	4.998713e+00	3.050852e-11	
53	4.728000e-09	4.999032e+00	4.998697e+00	7.237099e-10	
54	4.828000e-09	4.999019e+00	4.998681e+00	9.207653e-11	

Index   time            v(2)            v(3)            v(4)            
--------------------------------------------------------------------------------
55	4.928000e-09	4.999007e+00	4.998666e+00	7.265572e-10	
56	5.028000e-09	4.998995e+00	4.998651e+00	1.519375e-10	
57	5.128000e-09	4.998984e+00	4.998638e+00	7.324520e-10	
58	5.228000e-09	4.998973e+00	4.998624e+00	2.150942e-10	
59	5.328000e-09	4.998963e+00	4.998612e+00	7.498723e-10	
60	5.428000e-09	4.998953e+00	4.998599e+00	2.707076e-10	
61	5.528000e-09	4.998944e+00	4.998588e+00	7.440876e-10	
62	5.628000e-09	4.998935e+00	4.998576e+00	3.080677e-10	
63	5.728000e-09	4.998926e+00	4.998565e+00	7.490067e-10	
64	5.828000e-09	4.998917e+00	4.998554e+00	3.578036e-10	
65	5.928000e-09	4.998909e+00	4.998545e+00	7.620180e-10	
66	6.028000e-09	4.998901e+00	4.998535e+00	4.061682e-10	
67	6.128000e-09	4.998894e+00	4.998526e+00	7.764535e-10	
68	6.228000e-09	4.998887e+00	4.998516e+00	4.542915e-10	
69	6.328000e-09	4.998880e+00	4.998508e+00	7.965215e-10	
70	6.428000e-09	4.998873e+00	4.998500e+00	5.004937e-10	
71	6.528000e-09	4.998867e+00	4.998492e+00	8.066942e-10	
72	6.628000e-09	4.998860e+00	4.998484e+00	5.322892e-10	
73	6.728000e-09	4.998855e+00	4.998477e+00	8.165741e-10	
74	6.828000e-09	4.998849e+00	4.998470e+00	5.695229e-10	
75	6.928000e-09	4.998843e+00	4.998463e+00	8.327985e-10	
76	7.028000e-09	4.998838e+00	4.998456e+00	6.067761e-10	
77	7.128000e-09	4.998833e+00	4.998450e+00	8.494474e-10	
78	7.228000e-09	4.998829e+00	4.998444e+00	6.423110e-10	
79	7.328000e-09	4.998824e+00	4.998438e+00	8.666926e-10	
80	7.428000e-09	4.998820e+00	4.998433e+00	6.763910e-10	
81	7.528000e-09	4.998815e+00	4.998428e+00	8.826651e-10	
82	7.628000e-09	4.998811e+00	4.998422e+00	7.064945e-10	
83	7.728000e-09	4.998807e+00	4.998418e+00	8.973049e-10	
84	7.828000e-09	4.998804e+00	4.998413e+00	7.357214e-10	
85	7.928000e-09	4.998800e+00	4.998408e+00	9.141890e-10	
86	8.028000e-09	4.998797e+00	4.998404e+00	7.633493e-10	
87	8.128000e-09	4.998793e+00	4.998400e+00	9.293863e-10	
88	8.228000e-09	4.998790e+00	4.998395e+00	7.902937e-10	
89	8.328000e-09	4.998787e+00	4.998392e+00	9.443821e-10	
90	8.428000e-09	4.998784e+00	4.998388e+00	8.160159e-10	
91	8.528000e-09	4.998781e+00	4.998384e+00	9.585922e-10	
92	8.628000e-09	4.998779e+00	4.998381e+00	8.393134e-10	
93	8.728000e-09	4.998776e+00	4.998377e+00	9.713821e-10	
94	8.828000e-09	4.998773e+00	4.998374e+00	8.613221e-10	
95	8.928000e-09	4.998771e+00	4.998371e+00	9.836152e-10	
96	9.028000e-09	4.998769e+00	4.998368e+00	8.828005e-10	
97	9.128000e-09	4.998766e+00	4.998365e+00	9.963367e-10	
98	9.228000e-09	4.998764e+00	4.998362e+00	9.027781e-10	
99	9.328000e-09	4.998762e+00	4.998359e+00	1.008340e-09	
100	9.428000e-09	4.998760e+00	4.998357e+00	9.216000e-10	
101	9.528000e-09	4.998758e+00	4.998354e+00	1.019755e-09	
102	9.628000e-09	4.998757e+00	4.998352e+00	9.391561e-10	
103	9.728000e-09	4.998755e+00	4.998349e+00	1.030418e-09	
104	9.828000e-09	4.998753e+00	4.998347e+00	9.553296e-10	
105	9.928000e-09	4.998751e+00	4.998345e+00	1.040844e-09	
106	1.002800e-08	4.998750e+00	4.998343e+00	9.711099e-10	
107	1.012800e-08	4.998748e+00	4.998341e+00	1.050329e-09	
108	1.022800e-08	4.998747e+00	4.998338e+00	9.856694e-10	
109	1.032800e-08	4.998746e+00	4.998337e+00	1.059444e-09	
110	1.042800e-08	4.998744e+00	4.998335e+00	9.993870e-10	
111	1.052800e-08	4.998743e+00	4.998333e+00	1.068055e-09	
112	1.062800e-08	4.998742e+00	4.998331e+00	1.012196e-09	

Index   time            v(2)            v(3)            v(4)            
--------------------------------------------------------------------------------
113	1.072800e-08	4.998740e+00	4.998329e+00	1.076087e-09	
114	1.082800e-08	4.998739e+00	4.998327e+00	1.024113e-09	
115	1.092800e-08	4.998738e+00	4.998326e+00	1.083632e-09	
116	1.102800e-08	4.998737e+00	4.998324e+00	1.035358e-09	
117	1.112800e-08	4.998736e+00	4.998323e+00	1.090818e-09	
118	1.122800e-08	4.998735e+00	4.998321e+00	1.045883e-09	
119	1.132800e-08	4.998734e+00	4.998320e+00	1.097557e-09	
120	1.142800e-08	4.998733e+00	4.998318e+00	1.055740e-09	
121	1.152800e-08	4.998732e+00	4.998317e+00	1.103894e-09	
122	1.162800e-08	4.998731e+00	4.998315e+00	1.064962e-09	
123	1.172800e-08	4.998730e+00	4.998314e+00	1.109833e-09	
124	1.182800e-08	4.998730e+00	4.998313e+00	1.073569e-09	
125	1.192800e-08	4.998729e+00	4.998312e+00	1.115397e-09	
126	1.202800e-08	4.998728e+00	4.998310e+00	1.081659e-09	
127	1.212800e-08	4.998727e+00	4.998309e+00	1.120655e-09	
128	1.222800e-08	4.998726e+00	4.998308e+00	1.089219e-09	
129	1.232800e-08	4.998726e+00	4.998307e+00	1.125575e-09	
130	1.242800e-08	4.998725e+00	4.998306e+00	1.096303e-09	
131	1.252800e-08	4.998724e+00	4.998305e+00	1.130205e-09	
132	1.262800e-08	4.998724e+00	4.998303e+00	1.102942e-09	
133	1.272800e-08	4.998723e+00	4.998302e+00	1.134553e-09	
134	1.282800e-08	4.998723e+00	4.998301e+00	1.109157e-09	
135	1.292800e-08	4.998722e+00	4.998300e+00	1.138638e-09	
136	1.302800e-08	4.998721e+00	4.998299e+00	1.114989e-09	
137	1.312800e-08	4.998721e+00	4.998298e+00	1.142494e-09	
138	1.322800e-08	4.998720e+00	4.998297e+00	1.120470e-09	
139	1.332800e-08	4.998720e+00	4.998297e+00	1.146127e-09	
140	1.342800e-08	4.998719e+00	4.998296e+00	1.125619e-09	
141	1.352800e-08	4.998719e+00	4.998295e+00	1.149558e-09	
142	1.362800e-08	4.998718e+00	4.998294e+00	1.130463e-09	
143	1.372800e-08	4.998718e+00	4.998293e+00	1.152800e-09	
144	1.382800e-08	4.998717e+00	4.998292e+00	1.135021e-09	
145	1.392800e-08	4.998717e+00	4.998291e+00	1.155868e-09	
146	1.402800e-08	4.998717e+00	4.998290e+00	1.139319e-09	
147	1.412800e-08	4.998716e+00	4.998290e+00	1.158779e-09	
148	1.422800e-08	4.998716e+00	4.998289e+00	1.143378e-09	
149	1.432800e-08	4.998715e+00	4.998288e+00	1.161545e-09	
150	1.442800e-08	4.998715e+00	4.998287e+00	1.147214e-09	
151	1.452800e-08	4.998715e+00	4.998287e+00	1.164177e-09	
152	1.462800e-08	4.998714e+00	4.998286e+00	1.150845e-09	
153	1.472800e-08	4.998714e+00	4.998285e+00	1.166688e-09	
154	1.482800e-08	4.998714e+00	4.998285e+00	1.154288e-09	
155	1.492800e-08	4.998713e+00	4.998284e+00	1.169087e-09	
156	1.502800e-08	4.998713e+00	4.998283e+00	1.157558e-09	
157	1.512800e-08	4.998713e+00	4.998283e+00	1.171386e-09	
158	1.522800e-08	4.998713e+00	4.998282e+00	1.160670e-09	
159	1.532800e-08	4.998712e+00	4.998281e+00	1.173594e-09	
160	1.542800e-08	4.998712e+00	4.998281e+00	1.163637e-09	
161	1.552800e-08	4.998712e+00	4.998280e+00	1.175717e-09	
162	1.562800e-08	4.998712e+00	4.998280e+00	1.166469e-09	
163	1.572800e-08	4.998711e+00	4.998279e+00	1.177765e-09	
164	1.582800e-08	4.998711e+00	4.998278e+00	1.169178e-09	
165	1.590000e-08	4.998596e+00	4.998106e+00	-5.13567e-09	
166	1.590621e-08	4.998579e+00	4.997997e+00	-1.83926e-08	
167	1.591862e-08	4.998550e+00	4.997974e+00	6.346984e-09	
168	1.594345e-08	4.995095e+00	4.998019e+00	1.472412e-09	
169	1.599311e-08	4.879178e+00	4.998054e+00	2.266807e-09	
170	1.609242e-08	3.937755e+00	4.998339e+00	7.504918e-09	

Index   time            v(2)            v(3)            v(4)            
--------------------------------------------------------------------------------
171	1.610000e-08	3.827512e+00	4.998084e+00	-5.86240e-08	
172	1.610492e-08	3.860707e+00	4.998157e+00	-6.10953e-08	
173	1.611477e-08	3.879622e+00	4.998179e+00	-8.41332e-08	
174	1.613386e-08	3.853706e+00	4.998171e+00	-7.67199e-08	
175	1.617205e-08	3.828861e+00	4.998220e+00	-7.42199e-08	
176	1.623935e-08	3.771815e+00	4.998299e+00	-7.02048e-08	
177	1.633935e-08	3.699970e+00	4.998518e+00	-6.13310e-08	
178	1.643935e-08	3.624656e+00	4.998498e+00	-6.50394e-08	
179	1.653935e-08	3.558276e+00	4.998495e+00	-5.16514e-08	
180	1.663935e-08	3.490207e+00	4.998476e+00	-5.55976e-08	
181	1.673935e-08	3.429310e+00	4.998474e+00	-4.35959e-08	
182	1.683935e-08	3.367460e+00	4.998457e+00	-4.77477e-08	
183	1.693935e-08	3.311334e+00	4.998448e+00	-3.71909e-08	
184	1.703935e-08	3.254840e+00	4.797835e+00	-5.54993e-06	
185	1.713935e-08	3.203127e+00	3.826105e+00	5.064420e-03	
186	1.723935e-08	3.151372e+00	3.713212e+00	9.502307e-03	
187	1.733935e-08	3.103560e+00	3.641266e+00	1.268004e-02	
188	1.743935e-08	3.055858e+00	3.515604e+00	1.964915e-02	
189	1.753935e-08	3.011387e+00	3.447536e+00	2.458117e-02	
190	1.763935e-08	2.967239e+00	3.329946e+00	3.334942e-02	
191	1.773935e-08	2.925829e+00	3.265227e+00	4.006438e-02	
192	1.783935e-08	2.884857e+00	3.155053e+00	5.051478e-02	
193	1.793935e-08	2.846196e+00	3.093333e+00	5.902981e-02	
194	1.803935e-08	2.759757e+00	2.989863e+00	7.108756e-02	
195	1.813935e-08	2.458805e+00	2.930902e+00	8.140762e-02	
196	1.823935e-08	2.231108e+00	2.833589e+00	9.494365e-02	
197	1.833935e-08	2.166411e+00	2.777145e+00	1.071323e-01	
198	1.843935e-08	2.083595e+00	2.685425e+00	1.222198e-01	
199	1.853935e-08	2.019836e+00	2.631232e+00	1.361435e-01	
200	1.863935e-08	1.944661e+00	2.544606e+00	1.528258e-01	
201	1.873935e-08	1.884177e+00	2.492496e+00	1.685821e-01	
202	1.883935e-08	1.815614e+00	2.410566e+00	1.867917e-01	
203	1.893935e-08	1.758381e+00	2.360384e+00	2.043896e-01	
204	1.903935e-08	1.695579e+00	2.271978e+00	2.261858e-01	
205	1.913935e-08	1.641507e+00	2.157617e+00	2.604277e-01	
206	1.923935e-08	1.583784e+00	1.998137e+00	3.064034e-01	
207	1.933935e-08	1.532757e+00	1.916456e+00	3.434411e-01	
208	1.943935e-08	1.479515e+00	1.831939e+00	3.781630e-01	
209	1.953935e-08	1.431367e+00	1.774557e+00	4.134740e-01	
210	1.963935e-08	1.382096e+00	1.696126e+00	4.517174e-01	
211	1.973935e-08	1.336676e+00	1.642180e+00	4.911377e-01	
212	1.983935e-08	1.290953e+00	1.569437e+00	5.331126e-01	
213	1.993935e-08	1.248108e+00	1.518768e+00	5.767541e-01	
214	2.003935e-08	1.203348e+00	1.451225e+00	6.227303e-01	
215	2.013935e-08	1.147816e+00	1.403667e+00	6.705404e-01	
216	2.023935e-08	1.080997e+00	1.340897e+00	7.189791e-01	
217	2.033935e-08	1.023582e+00	1.296286e+00	7.685504e-01	
218	2.043935e-08	9.786948e-01	1.237902e+00	8.181474e-01	
219	2.053935e-08	9.381659e-01	1.196063e+00	8.692346e-01	
220	2.063935e-08	8.994869e-01	1.141711e+00	9.199837e-01	
221	2.073935e-08	8.618515e-01	1.102481e+00	9.724574e-01	
222	2.083935e-08	8.261949e-01	1.051847e+00	1.024375e+00	
223	2.093935e-08	7.912536e-01	1.015067e+00	1.078123e+00	
224	2.103935e-08	7.583450e-01	9.675177e-01	1.131683e+00	
225	2.113935e-08	7.259043e-01	9.303876e-01	1.190582e+00	
226	2.123935e-08	6.954989e-01	8.802364e-01	1.255018e+00	
227	2.133935e-08	6.653763e-01	8.417874e-01	1.323514e+00	
228	2.143935e-08	6.372551e-01	7.976866e-01	1.388578e+00	

Index   time            v(2)            v(3)            v(4)            
--------------------------------------------------------------------------------
229	2.153935e-08	6.092764e-01	7.664294e-01	1.453448e+00	
230	2.163935e-08	5.832392e-01	7.277166e-01	1.517766e+00	
231	2.173935e-08	5.572414e-01	6.991309e-01	1.584090e+00	
232	2.183935e-08	5.331100e-01	6.633304e-01	1.649486e+00	
233	2.193935e-08	5.089422e-01	6.368757e-01	1.716198e+00	
234	2.203935e-08	4.864882e-01	6.037533e-01	1.781962e+00	
235	2.213935e-08	4.634523e-01	5.792649e-01	1.848989e+00	
236	2.223935e-08	4.411249e-01	5.486057e-01	1.914800e+00	
237	2.233935e-08	4.182061e-01	5.259294e-01	1.981303e+00	
238	2.243935e-08	3.974951e-01	4.975357e-01	2.046219e+00	
239	2.253935e-08	3.774426e-01	4.765269e-01	2.111598e+00	
240	2.263935e-08	3.592840e-01	4.502158e-01	2.175396e+00	
241	2.273935e-08	3.410692e-01	4.307398e-01	2.239541e+00	
242	2.283935e-08	3.243316e-01	4.063429e-01	2.302140e+00	
243	2.293935e-08	3.074692e-01	3.882750e-01	2.364984e+00	
244	2.303935e-08	2.919848e-01	3.656289e-01	2.426375e+00	
245	2.313935e-08	2.763615e-01	3.487754e-01	2.488316e+00	
246	2.323935e-08	2.620218e-01	3.275000e-01	2.549896e+00	
247	2.333935e-08	2.475337e-01	3.115020e-01	2.612742e+00	
248	2.343935e-08	2.342395e-01	2.916126e-01	2.674496e+00	
249	2.353935e-08	2.207909e-01	2.769511e-01	2.735785e+00	
250	2.363935e-08	2.084516e-01	2.587715e-01	2.795372e+00	
251	2.373935e-08	1.959544e-01	2.453191e-01	2.854835e+00	
252	2.383935e-08	1.844871e-01	2.284788e-01	2.912958e+00	
253	2.393935e-08	1.728606e-01	2.159786e-01	2.970772e+00	
254	2.403935e-08	1.621880e-01	2.003190e-01	3.027119e+00	
255	2.413935e-08	1.513426e-01	1.886802e-01	3.083042e+00	
256	2.423935e-08	1.413410e-01	1.740994e-01	3.137516e+00	
257	2.433935e-08	1.311306e-01	1.632439e-01	3.191452e+00	
258	2.443935e-08	1.217322e-01	1.496484e-01	3.243901e+00	
259	2.453935e-08	1.122238e-01	1.395050e-01	3.295705e+00	
260	2.463935e-08	1.035303e-01	1.268095e-01	3.346041e+00	
261	2.473935e-08	9.471782e-02	1.173130e-01	3.395691e+00	
262	2.483935e-08	8.662314e-02	1.054394e-01	3.443919e+00	
263	2.493935e-08	7.838867e-02	9.653069e-02	3.491434e+00	
264	2.503935e-08	7.081219e-02	8.540747e-02	3.537581e+00	
265	2.513935e-08	6.309859e-02	7.703071e-02	3.583025e+00	
266	2.523935e-08	5.599355e-02	6.658513e-02	3.627247e+00	
267	2.533935e-08	4.875536e-02	5.867738e-02	3.670899e+00	
268	2.543935e-08	4.208000e-02	4.884319e-02	3.713427e+00	
269	2.553935e-08	3.527588e-02	4.137685e-02	3.755237e+00	
270	2.563935e-08	2.899231e-02	3.213308e-02	3.795777e+00	
271	2.573935e-08	2.258470e-02	2.508912e-02	3.835523e+00	
272	2.583935e-08	1.665862e-02	1.638318e-02	3.874084e+00	
273	2.593935e-08	1.061343e-02	9.710064e-03	3.911890e+00	
274	2.603935e-08	5.013742e-03	1.485719e-03	3.948555e+00	
275	2.613935e-08	-7.00270e-04	-4.85432e-03	3.984457e+00	
276	2.623935e-08	-6.00274e-03	-1.26392e-02	4.019261e+00	
277	2.633935e-08	-1.14155e-02	-1.86766e-02	4.053309e+00	
278	2.643935e-08	-1.64478e-02	-2.60594e-02	4.086300e+00	
279	2.653935e-08	-2.15821e-02	-3.18213e-02	4.118544e+00	
280	2.663935e-08	-2.63591e-02	-3.88359e-02	4.149775e+00	
281	2.673935e-08	-3.12298e-02	-4.43465e-02	4.180276e+00	
282	2.683935e-08	-3.57701e-02	-5.10234e-02	4.209813e+00	
283	2.693935e-08	-4.04014e-02	-5.63046e-02	4.238641e+00	
284	2.703935e-08	-4.47279e-02	-6.26713e-02	4.266556e+00	
285	2.713935e-08	-4.91408e-02	-6.77426e-02	4.293789e+00	
286	2.723935e-08	-5.32714e-02	-7.38237e-02	4.320163e+00	

Index   time            v(2)            v(3)            v(4)            
--------------------------------------------------------------------------------
287	2.733935e-08	-5.74834e-02	-7.87017e-02	4.345894e+00	
288	2.743935e-08	-6.14334e-02	-8.45187e-02	4.370824e+00	
289	2.753935e-08	-6.54598e-02	-8.92179e-02	4.395137e+00	
290	2.763935e-08	-6.92431e-02	-9.47895e-02	4.418679e+00	
291	2.773935e-08	-7.30979e-02	-9.93221e-02	4.441613e+00	
292	2.783935e-08	-7.67267e-02	-1.04665e-01	4.463812e+00	
293	2.793935e-08	-8.04223e-02	-1.09044e-01	4.485432e+00	
294	2.803935e-08	-8.39078e-02	-1.14176e-01	4.506363e+00	
295	2.813935e-08	-8.74554e-02	-1.18412e-01	4.526741e+00	
296	2.823935e-08	-9.08074e-02	-1.23348e-01	4.546470e+00	
297	2.833935e-08	-9.42170e-02	-1.27451e-01	4.565673e+00	
298	2.843935e-08	-9.74441e-02	-1.32204e-01	4.584265e+00	
299	2.853935e-08	-1.00724e-01	-1.36182e-01	4.602357e+00	
300	2.863935e-08	-1.03834e-01	-1.40765e-01	4.619874e+00	
301	2.873935e-08	-1.06993e-01	-1.44626e-01	4.636918e+00	
302	2.883935e-08	-1.09992e-01	-1.49047e-01	4.653423e+00	
303	2.893935e-08	-1.13035e-01	-1.52798e-01	4.669480e+00	
304	2.903935e-08	-1.15931e-01	-1.57068e-01	4.685032e+00	
305	2.913935e-08	-1.18866e-01	-1.60714e-01	4.700161e+00	
306	2.923935e-08	-1.21663e-01	-1.64842e-01	4.714819e+00	
307	2.933935e-08	-1.24497e-01	-1.68387e-01	4.729079e+00	
308	2.943935e-08	-1.27201e-01	-1.72380e-01	4.742899e+00	
309	2.953935e-08	-1.29938e-01	-1.75830e-01	4.756345e+00	
310	2.963935e-08	-1.32553e-01	-1.79694e-01	4.769380e+00	
311	2.973935e-08	-1.35198e-01	-1.83052e-01	4.782063e+00	
312	2.983935e-08	-1.37728e-01	-1.86793e-01	4.794360e+00	
313	2.993935e-08	-1.40285e-01	-1.90063e-01	4.806326e+00	
314	3.003935e-08	-1.42734e-01	-1.93687e-01	4.817931e+00	
315	3.013935e-08	-1.45207e-01	-1.96871e-01	4.829226e+00	
316	3.023935e-08	-1.47578e-01	-2.00383e-01	4.840184e+00	
317	3.033935e-08	-1.49970e-01	-2.03484e-01	4.850852e+00	
318	3.043935e-08	-1.52266e-01	-2.06887e-01	4.861205e+00	
319	3.053935e-08	-1.54581e-01	-2.09907e-01	4.871286e+00	
320	3.063935e-08	-1.56804e-01	-2.13207e-01	4.881074e+00	
321	3.073935e-08	-1.59044e-01	-2.16148e-01	4.890606e+00	
322	3.083935e-08	-1.61197e-01	-2.19347e-01	4.899866e+00	
323	3.093935e-08	-1.63364e-01	-2.22211e-01	4.908886e+00	
324	3.103935e-08	-1.65450e-01	-2.25313e-01	4.917653e+00	
325	3.113935e-08	-1.67546e-01	-2.28101e-01	4.926195e+00	
326	3.123935e-08	-1.69565e-01	-2.31108e-01	4.934500e+00	
327	3.133935e-08	-1.71593e-01	-2.33822e-01	4.942597e+00	
328	3.143935e-08	-1.73548e-01	-2.36737e-01	4.950472e+00	
329	3.153935e-08	-1.75510e-01	-2.39378e-01	4.958152e+00	
330	3.163935e-08	-1.77402e-01	-2.42204e-01	4.965626e+00	
331	3.173935e-08	-1.79299e-01	-2.44772e-01	4.972917e+00	
332	3.183935e-08	-1.81130e-01	-2.47510e-01	4.980016e+00	
333	3.190000e-08	-1.82289e-01	-2.48974e-01	4.984137e+00	
334	3.191000e-08	-1.85649e-01	-2.49280e-01	4.984752e+00	
335	3.193000e-08	-1.94025e-01	-2.49822e-01	4.986135e+00	
336	3.197000e-08	-1.83181e-01	-2.50858e-01	4.988910e+00	
337	3.203371e-08	2.884582e-02	-2.52452e-01	4.993175e+00	
338	3.209348e-08	5.436334e-01	-2.53934e-01	4.997160e+00	
339	3.210000e-08	6.203501e-01	-2.54108e-01	4.997549e+00	
340	3.210125e-08	6.309529e-01	-2.54139e-01	4.997631e+00	
341	3.210375e-08	6.472974e-01	-2.54203e-01	4.997792e+00	
342	3.210875e-08	6.612459e-01	-2.54326e-01	4.998106e+00	
343	3.211876e-08	6.684241e-01	-2.54576e-01	4.998752e+00	
344	3.213525e-08	6.767259e-01	-2.54997e-01	4.999842e+00	

Index   time            v(2)            v(3)            v(4)            
--------------------------------------------------------------------------------
345	3.216415e-08	6.920924e-01	-2.55728e-01	5.001736e+00	
346	3.222196e-08	7.217340e-01	-2.57136e-01	5.005443e+00	
347	3.232196e-08	7.718774e-01	-2.59566e-01	5.011858e+00	
348	3.242196e-08	8.206479e-01	-2.61985e-01	5.018005e+00	
349	3.252196e-08	8.677878e-01	-2.64353e-01	5.023983e+00	
350	3.262196e-08	9.130801e-01	-2.66697e-01	5.029838e+00	
351	3.272196e-08	9.568678e-01	-2.68991e-01	5.035537e+00	
352	3.282196e-08	9.990343e-01	-2.71262e-01	5.041118e+00	
353	3.292196e-08	1.039879e+00	-2.73501e-01	5.046534e+00	
354	3.302196e-08	1.079237e+00	-2.28453e-01	5.051992e+00	
355	3.312196e-08	1.117432e+00	3.593319e-01	5.059704e+00	
356	3.317320e-08	1.136576e+00	5.898828e-01	5.063545e+00	
357	3.323667e-08	1.159761e+00	6.317097e-01	5.067313e+00	
358	3.330065e-08	1.182495e+00	6.810272e-01	5.071174e+00	
359	3.337230e-08	1.207534e+00	7.256570e-01	5.075414e+00	
360	3.347230e-08	1.241588e+00	7.974353e-01	5.081440e+00	
361	3.357230e-08	1.274778e+00	8.593577e-01	5.087056e+00	
362	3.367230e-08	1.306987e+00	9.278660e-01	5.092232e+00	
363	3.377230e-08	1.338320e+00	9.870126e-01	5.096966e+00	
364	3.387230e-08	1.368770e+00	1.052258e+00	5.101193e+00	
365	3.397230e-08	1.401268e+00	1.108877e+00	5.105054e+00	
366	3.407230e-08	1.483282e+00	1.171118e+00	5.108361e+00	
367	3.417230e-08	1.757918e+00	1.225402e+00	5.111341e+00	
368	3.427230e-08	1.905600e+00	1.284950e+00	5.113718e+00	
369	3.437230e-08	1.960800e+00	1.336898e+00	5.115898e+00	
370	3.447230e-08	2.033160e+00	1.393742e+00	5.117534e+00	
371	3.457230e-08	2.084375e+00	1.443888e+00	5.118885e+00	
372	3.467230e-08	2.152114e+00	1.498498e+00	5.119647e+00	
373	3.477230e-08	2.202438e+00	1.546843e+00	5.120154e+00	
374	3.487230e-08	2.265152e+00	1.599276e+00	5.120113e+00	
375	3.497230e-08	2.314218e+00	1.646679e+00	5.119766e+00	
376	3.507230e-08	2.372570e+00	1.711633e+00	5.117869e+00	
377	3.517230e-08	2.420166e+00	1.830932e+00	5.110316e+00	
378	3.527230e-08	2.474714e+00	1.960389e+00	5.099277e+00	
379	3.537230e-08	2.520698e+00	2.033864e+00	5.092102e+00	
380	3.547230e-08	2.571786e+00	2.101227e+00	5.085222e+00	
381	3.557230e-08	2.616148e+00	2.159058e+00	5.078200e+00	
382	3.567230e-08	2.664275e+00	2.222552e+00	5.070048e+00	
383	3.577230e-08	2.707006e+00	2.278637e+00	5.061360e+00	
384	3.587230e-08	2.752429e+00	2.338826e+00	5.051684e+00	
385	3.597230e-08	2.793691e+00	2.392832e+00	5.041320e+00	
386	3.607230e-08	2.840231e+00	2.449963e+00	5.030096e+00	
387	3.617230e-08	2.899698e+00	2.501883e+00	5.018077e+00	
388	3.627230e-08	2.972269e+00	2.556177e+00	5.005291e+00	
389	3.637230e-08	3.030898e+00	2.606036e+00	4.991637e+00	
390	3.647230e-08	3.079820e+00	2.657663e+00	4.977306e+00	
391	3.657230e-08	3.123761e+00	2.705495e+00	4.962064e+00	
392	3.667230e-08	3.167794e+00	2.754668e+00	4.946176e+00	
393	3.677230e-08	3.209701e+00	2.800551e+00	4.929340e+00	
394	3.687230e-08	3.251393e+00	2.847415e+00	4.911887e+00	
395	3.697230e-08	3.291306e+00	2.891436e+00	4.893453e+00	
396	3.707230e-08	3.330772e+00	2.936930e+00	4.874034e+00	
397	3.717230e-08	3.368754e+00	2.983995e+00	4.851347e+00	
398	3.727230e-08	3.406139e+00	3.036878e+00	4.824420e+00	
399	3.737230e-08	3.442266e+00	3.086917e+00	4.795654e+00	
400	3.747230e-08	3.477697e+00	3.133078e+00	4.767889e+00	
401	3.757230e-08	3.512044e+00	3.174917e+00	4.740064e+00	
402	3.767230e-08	3.545652e+00	3.216360e+00	4.711565e+00	

Index   time            v(2)            v(3)            v(4)            
--------------------------------------------------------------------------------
403	3.777230e-08	3.578314e+00	3.255829e+00	4.681749e+00	
404	3.787230e-08	3.610213e+00	3.295199e+00	4.650949e+00	
405	3.797230e-08	3.641278e+00	3.332759e+00	4.618807e+00	
406	3.807230e-08	3.671752e+00	3.370150e+00	4.585635e+00	
407	3.817230e-08	3.702497e+00	3.405873e+00	4.551104e+00	
408	3.827230e-08	3.734316e+00	3.441387e+00	4.515483e+00	
409	3.837230e-08	3.766153e+00	3.475355e+00	4.478479e+00	
410	3.847230e-08	3.796236e+00	3.509087e+00	4.440322e+00	
411	3.857230e-08	3.824539e+00	3.541382e+00	4.400752e+00	
412	3.867230e-08	3.851646e+00	3.573426e+00	4.359967e+00	
413	3.877230e-08	3.878040e+00	3.604132e+00	4.318083e+00	
414	3.887230e-08	3.903683e+00	3.634579e+00	4.275520e+00	
415	3.897230e-08	3.928712e+00	3.663779e+00	4.232096e+00	
416	3.907230e-08	3.953026e+00	3.692751e+00	4.187951e+00	
417	3.917230e-08	3.976762e+00	3.720775e+00	4.142537e+00	
418	3.927230e-08	3.999819e+00	3.749038e+00	4.095366e+00	
419	3.937230e-08	4.022334e+00	3.776603e+00	4.046273e+00	
420	3.947230e-08	4.044206e+00	3.803802e+00	3.996319e+00	
421	3.957230e-08	4.065567e+00	3.829589e+00	3.946016e+00	
422	3.967230e-08	4.086322e+00	3.854854e+00	3.895391e+00	
423	3.977230e-08	4.106596e+00	3.879052e+00	3.844023e+00	
424	3.987230e-08	4.126300e+00	3.902965e+00	3.791903e+00	
425	3.997230e-08	4.145552e+00	3.925944e+00	3.738896e+00	
426	4.007230e-08	4.164274e+00	3.948656e+00	3.685102e+00	
427	4.017230e-08	4.182623e+00	3.970493e+00	3.630417e+00	
428	4.027230e-08	4.200607e+00	3.992073e+00	3.574926e+00	
429	4.037230e-08	4.218350e+00	4.012831e+00	3.518530e+00	
430	4.047230e-08	4.235656e+00	4.033345e+00	3.461303e+00	
431	4.057230e-08	4.252486e+00	4.053089e+00	3.403150e+00	
432	4.067230e-08	4.268757e+00	4.072599e+00	3.344135e+00	
433	4.077230e-08	4.284609e+00	4.091388e+00	3.284232e+00	
434	4.087230e-08	4.300020e+00	4.109954e+00	3.224092e+00	
435	4.097230e-08	4.315083e+00	4.127846e+00	3.164135e+00	
436	4.107230e-08	4.329742e+00	4.145527e+00	3.104482e+00	
437	4.117230e-08	4.344075e+00	4.162587e+00	3.045063e+00	
438	4.127230e-08	4.358029e+00	4.179477e+00	2.985848e+00	
439	4.137230e-08	4.371677e+00	4.195823e+00	2.926688e+00	
440	4.147230e-08	4.384970e+00	4.212006e+00	2.867728e+00	
441	4.157230e-08	4.397976e+00	4.227621e+00	2.809115e+00	
442	4.167230e-08	4.410648e+00	4.243020e+00	2.751056e+00	
443	4.177230e-08	4.423050e+00	4.257873e+00	2.693496e+00	
444	4.187230e-08	4.435141e+00	4.272543e+00	2.636450e+00	
445	4.197230e-08	4.446978e+00	4.286721e+00	2.579840e+00	
446	4.207230e-08	4.458523e+00	4.300734e+00	2.523722e+00	
447	4.217230e-08	4.469832e+00	4.314290e+00	2.468050e+00	
448	4.227230e-08	4.480876e+00	4.327689e+00	2.412879e+00	
449	4.237230e-08	4.491711e+00	4.340661e+00	2.358164e+00	
450	4.247230e-08	4.502302e+00	4.353486e+00	2.303953e+00	
451	4.257230e-08	4.512684e+00	4.365911e+00	2.250201e+00	
452	4.267230e-08	4.522817e+00	4.378197e+00	2.196948e+00	
453	4.277230e-08	4.532741e+00	4.390110e+00	2.144155e+00	
454	4.287230e-08	4.542434e+00	4.401892e+00	2.091940e+00	
455	4.297230e-08	4.551939e+00	4.413324e+00	2.040434e+00	
456	4.307230e-08	4.561230e+00	4.424633e+00	1.989798e+00	
457	4.317230e-08	4.570347e+00	4.435616e+00	1.940038e+00	
458	4.327230e-08	4.579264e+00	4.446484e+00	1.891187e+00	
459	4.337230e-08	4.588017e+00	4.457051e+00	1.843199e+00	
460	4.347230e-08	4.596582e+00	4.467510e+00	1.796101e+00	

Index   time            v(2)            v(3)            v(4)            
--------------------------------------------------------------------------------
461	4.357230e-08	4.604993e+00	4.477687e+00	1.749881e+00	
462	4.367230e-08	4.613229e+00	4.487757e+00	1.704596e+00	
463	4.377230e-08	4.621320e+00	4.497557e+00	1.660237e+00	
464	4.387230e-08	4.629246e+00	4.507255e+00	1.616825e+00	
465	4.397230e-08	4.637035e+00	4.516702e+00	1.574325e+00	
466	4.407230e-08	4.644670e+00	4.526055e+00	1.532750e+00	
467	4.417230e-08	4.652176e+00	4.535173e+00	1.492070e+00	
468	4.427230e-08	4.659538e+00	4.544202e+00	1.452297e+00	
469	4.437230e-08	4.666779e+00	4.553012e+00	1.413403e+00	
470	4.447230e-08	4.673886e+00	4.561737e+00	1.375398e+00	
471	4.457230e-08	4.680878e+00	4.570256e+00	1.338253e+00	
472	4.467230e-08	4.687743e+00	4.578695e+00	1.301974e+00	
473	4.477230e-08	4.694498e+00	4.586940e+00	1.266534e+00	
474	4.487230e-08	4.701131e+00	4.595109e+00	1.231941e+00	
475	4.497230e-08	4.707662e+00	4.603097e+00	1.198180e+00	
476	4.507230e-08	4.714079e+00	4.611012e+00	1.165273e+00	
477	4.517230e-08	4.720398e+00	4.618757e+00	1.133208e+00	
478	4.527230e-08	4.726610e+00	4.626432e+00	1.101988e+00	
479	4.537230e-08	4.732731e+00	4.633948e+00	1.071587e+00	
480	4.547230e-08	4.738749e+00	4.641396e+00	1.041999e+00	
481	4.557230e-08	4.744681e+00	4.648695e+00	1.013200e+00	
482	4.567230e-08	4.750516e+00	4.655930e+00	9.851862e-01	
483	4.577230e-08	4.756269e+00	4.663022e+00	9.579351e-01	
484	4.587230e-08	4.761930e+00	4.670053e+00	9.314422e-01	
485	4.597230e-08	4.767513e+00	4.676949e+00	9.056824e-01	
486	4.607230e-08	4.773010e+00	4.683787e+00	8.806470e-01	
487	4.617230e-08	4.778432e+00	4.690497e+00	8.563108e-01	
488	4.627230e-08	4.783771e+00	4.697151e+00	8.326648e-01	
489	4.637230e-08	4.789040e+00	4.703684e+00	8.096851e-01	
490	4.647230e-08	4.794230e+00	4.710163e+00	7.873620e-01	
491	4.657230e-08	4.799353e+00	4.716528e+00	7.656726e-01	
492	4.667230e-08	4.804401e+00	4.722840e+00	7.446066e-01	
493	4.677230e-08	4.809385e+00	4.729044e+00	7.241418e-01	
494	4.687230e-08	4.814296e+00	4.735196e+00	7.042679e-01	
495	4.697230e-08	4.819146e+00	4.741246e+00	6.849645e-01	
496	4.700000e-08	4.820309e+00	4.742699e+00	6.796605e-01	

                mosdriver -- 3 lossy lines txl model -- c load 
                Transient Analysis  Sun Feb 07 19:00:58  2010
--------------------------------------------------------------------------------
Index   time            v(5)            v(6)            
--------------------------------------------------------------------------------
0	0.000000e+00	1.242558e-09	0.000000e+00	
1	2.000000e-12	1.242558e-09	0.000000e+00	
2	4.000000e-12	1.242558e-09	0.000000e+00	
3	8.000000e-12	1.242558e-09	0.000000e+00	
4	1.600000e-11	1.242558e-09	0.000000e+00	
5	3.200000e-11	1.242558e-09	0.000000e+00	
6	6.400000e-11	1.242560e-09	0.000000e+00	
7	1.280000e-10	1.242573e-09	0.000000e+00	
8	2.280000e-10	1.242615e-09	0.000000e+00	
9	3.280000e-10	1.242601e-09	0.000000e+00	
10	4.280000e-10	1.242585e-09	0.000000e+00	
11	5.280000e-10	1.242572e-09	0.000000e+00	
12	6.280000e-10	1.242558e-09	0.000000e+00	
13	7.280000e-10	1.242546e-09	0.000000e+00	
14	8.280000e-10	1.242533e-09	0.000000e+00	
15	9.280000e-10	1.242522e-09	0.000000e+00	
16	1.028000e-09	1.242510e-09	0.000000e+00	
17	1.128000e-09	2.249830e-09	0.000000e+00	
18	1.228000e-09	3.732011e-09	0.000000e+00	
19	1.328000e-09	8.245883e-11	0.000000e+00	
20	1.428000e-09	9.939216e-10	0.000000e+00	
21	1.528000e-09	1.472417e-10	0.000000e+00	
22	1.628000e-09	8.242704e-10	0.000000e+00	
23	1.728000e-09	2.667727e-10	0.000000e+00	
24	1.828000e-09	6.455068e-10	0.000000e+00	
25	1.928000e-09	3.683496e-10	0.000000e+00	
26	2.028000e-09	4.954720e-10	0.000000e+00	
27	2.128000e-09	5.321980e-10	0.000000e+00	
28	2.228000e-09	7.610725e-10	0.000000e+00	
29	2.328000e-09	5.840404e-10	0.000000e+00	
30	2.428000e-09	1.607054e-10	0.000000e+00	
31	2.528000e-09	4.164933e-10	0.000000e+00	
32	2.628000e-09	1.005225e-10	0.000000e+00	
33	2.728000e-09	4.535245e-10	0.000000e+00	
34	2.828000e-09	7.281951e-11	0.000000e+00	
35	2.928000e-09	4.756486e-10	0.000000e+00	
36	3.028000e-09	6.477825e-11	0.000000e+00	
37	3.128000e-09	5.304343e-10	0.000000e+00	
38	3.228000e-09	2.733845e-10	0.000000e+00	
39	3.328000e-09	6.623541e-10	0.000000e+00	
40	3.428000e-09	2.177413e-11	0.000000e+00	
41	3.528000e-09	3.827402e-10	0.000000e+00	
42	3.628000e-09	-3.19834e-11	0.000000e+00	
43	3.728000e-09	3.827615e-10	0.000000e+00	
44	3.828000e-09	8.545861e-13	0.000000e+00	
45	3.928000e-09	3.845928e-10	0.000000e+00	
46	4.028000e-09	3.881923e-11	0.000000e+00	
47	4.128000e-09	3.914262e-10	0.000000e+00	
48	4.228000e-09	1.041219e-10	0.000000e+00	
49	4.328000e-09	4.270767e-10	0.000000e+00	
50	4.428000e-09	1.289197e-10	0.000000e+00	
51	4.528000e-09	3.797781e-10	0.000000e+00	
52	4.628000e-09	1.425974e-10	0.000000e+00	
53	4.728000e-09	3.844497e-10	0.000000e+00	
54	4.828000e-09	1.901817e-10	0.000000e+00	

Index   time            v(5)            v(6)            
--------------------------------------------------------------------------------
55	4.928000e-09	3.987883e-10	0.000000e+00	
56	5.028000e-09	2.376020e-10	0.000000e+00	
57	5.128000e-09	4.168316e-10	0.000000e+00	
58	5.228000e-09	2.940001e-10	0.000000e+00	
59	5.328000e-09	4.529616e-10	0.000000e+00	
60	5.428000e-09	3.400793e-10	0.000000e+00	
61	5.528000e-09	4.474202e-10	0.000000e+00	
62	5.628000e-09	3.578912e-10	0.000000e+00	
63	5.728000e-09	4.588383e-10	0.000000e+00	
64	5.828000e-09	3.995872e-10	0.000000e+00	
65	5.928000e-09	4.829197e-10	0.000000e+00	
66	6.028000e-09	4.417896e-10	0.000000e+00	
67	6.128000e-09	5.082584e-10	0.000000e+00	
68	6.228000e-09	4.835323e-10	0.000000e+00	
69	6.328000e-09	5.367709e-10	0.000000e+00	
70	6.428000e-09	5.240673e-10	0.000000e+00	
71	6.528000e-09	5.603457e-10	0.000000e+00	
72	6.628000e-09	5.564994e-10	0.000000e+00	
73	6.728000e-09	5.837660e-10	0.000000e+00	
74	6.828000e-09	5.916242e-10	0.000000e+00	
75	6.928000e-09	6.106816e-10	0.000000e+00	
76	7.028000e-09	6.263440e-10	0.000000e+00	
77	7.128000e-09	6.376103e-10	0.000000e+00	
78	7.228000e-09	6.598589e-10	0.000000e+00	
79	7.328000e-09	6.652342e-10	0.000000e+00	
80	7.428000e-09	6.924907e-10	0.000000e+00	
81	7.528000e-09	6.905901e-10	0.000000e+00	
82	7.628000e-09	7.200820e-10	0.000000e+00	
83	7.728000e-09	7.136485e-10	0.000000e+00	
84	7.828000e-09	7.475128e-10	0.000000e+00	
85	7.928000e-09	7.355153e-10	0.000000e+00	
86	8.028000e-09	7.766546e-10	0.000000e+00	
87	8.128000e-09	7.600012e-10	0.000000e+00	
88	8.228000e-09	8.021805e-10	0.000000e+00	
89	8.328000e-09	7.837121e-10	0.000000e+00	
90	8.428000e-09	8.265170e-10	0.000000e+00	
91	8.528000e-09	8.063706e-10	0.000000e+00	
92	8.628000e-09	8.490337e-10	0.000000e+00	
93	8.728000e-09	8.276174e-10	0.000000e+00	
94	8.828000e-09	8.692260e-10	0.000000e+00	
95	8.928000e-09	8.504125e-10	0.000000e+00	
96	9.028000e-09	8.891721e-10	0.000000e+00	
97	9.128000e-09	8.696284e-10	0.000000e+00	
98	9.228000e-09	9.086561e-10	0.000000e+00	
99	9.328000e-09	8.882867e-10	0.000000e+00	
100	9.428000e-09	9.270634e-10	0.000000e+00	
101	9.528000e-09	9.060216e-10	0.000000e+00	
102	9.628000e-09	9.441623e-10	0.000000e+00	
103	9.728000e-09	9.225885e-10	0.000000e+00	
104	9.828000e-09	9.600273e-10	0.000000e+00	
105	9.928000e-09	9.383511e-10	0.000000e+00	
106	1.002800e-08	9.752307e-10	0.000000e+00	
107	1.012800e-08	9.534474e-10	0.000000e+00	
108	1.022800e-08	9.894080e-10	0.000000e+00	
109	1.032800e-08	9.677010e-10	0.000000e+00	
110	1.042800e-08	1.002697e-09	0.000000e+00	
111	1.052800e-08	9.811582e-10	0.000000e+00	
112	1.062800e-08	1.015101e-09	0.000000e+00	

Index   time            v(5)            v(6)            
--------------------------------------------------------------------------------
113	1.072800e-08	9.937999e-10	0.000000e+00	
114	1.082800e-08	1.026611e-09	0.000000e+00	
115	1.092800e-08	1.005703e-09	0.000000e+00	
116	1.102800e-08	1.037520e-09	0.000000e+00	
117	1.112800e-08	1.016944e-09	0.000000e+00	
118	1.122800e-08	1.047606e-09	0.000000e+00	
119	1.132800e-08	1.027500e-09	0.000000e+00	
120	1.142800e-08	1.057046e-09	0.000000e+00	
121	1.152800e-08	1.037434e-09	0.000000e+00	
122	1.162800e-08	1.065845e-09	0.000000e+00	
123	1.172800e-08	1.046748e-09	0.000000e+00	
124	1.182800e-08	1.074025e-09	0.000000e+00	
125	1.192800e-08	1.055483e-09	0.000000e+00	
126	1.202800e-08	1.081671e-09	0.000000e+00	
127	1.212800e-08	1.063717e-09	0.000000e+00	
128	1.222800e-08	1.088809e-09	0.000000e+00	
129	1.232800e-08	1.071442e-09	0.000000e+00	
130	1.242800e-08	1.095467e-09	0.000000e+00	
131	1.252800e-08	1.078699e-09	0.000000e+00	
132	1.262800e-08	1.101681e-09	0.000000e+00	
133	1.272800e-08	1.085514e-09	0.000000e+00	
134	1.282800e-08	1.107477e-09	0.000000e+00	
135	1.292800e-08	1.091913e-09	0.000000e+00	
136	1.302800e-08	1.112896e-09	0.000000e+00	
137	1.312800e-08	1.097941e-09	0.000000e+00	
138	1.322800e-08	1.117967e-09	0.000000e+00	
139	1.332800e-08	1.103607e-09	0.000000e+00	
140	1.342800e-08	1.122711e-09	0.000000e+00	
141	1.352800e-08	1.108944e-09	0.000000e+00	
142	1.362800e-08	1.127160e-09	0.000000e+00	
143	1.372800e-08	1.113974e-09	0.000000e+00	
144	1.382800e-08	1.131333e-09	0.000000e+00	
145	1.392800e-08	1.118719e-09	0.000000e+00	
146	1.402800e-08	1.135255e-09	0.000000e+00	
147	1.412800e-08	1.123203e-09	0.000000e+00	
148	1.422800e-08	1.138951e-09	0.000000e+00	
149	1.432800e-08	1.127447e-09	0.000000e+00	
150	1.442800e-08	1.142437e-09	0.000000e+00	
151	1.452800e-08	1.131467e-09	0.000000e+00	
152	1.462800e-08	1.145733e-09	0.000000e+00	
153	1.472800e-08	1.135282e-09	0.000000e+00	
154	1.482800e-08	1.148855e-09	0.000000e+00	
155	1.492800e-08	1.138909e-09	0.000000e+00	
156	1.502800e-08	1.151818e-09	0.000000e+00	
157	1.512800e-08	1.142362e-09	0.000000e+00	
158	1.522800e-08	1.154640e-09	0.000000e+00	
159	1.532800e-08	1.145657e-09	0.000000e+00	
160	1.542800e-08	1.157331e-09	0.000000e+00	
161	1.552800e-08	1.148806e-09	0.000000e+00	
162	1.562800e-08	1.159904e-09	0.000000e+00	
163	1.572800e-08	1.151822e-09	0.000000e+00	
164	1.582800e-08	1.162372e-09	0.000000e+00	
165	1.590000e-08	1.150272e-09	0.000000e+00	
166	1.590621e-08	1.156274e-09	-1.84764e-12	
167	1.591862e-08	1.159634e-09	-6.07201e-12	
168	1.594345e-08	1.162682e-09	-1.48638e-11	
169	1.599311e-08	1.163660e-09	-3.28249e-11	
170	1.609242e-08	1.157357e-09	-7.07355e-11	

Index   time            v(5)            v(6)            
--------------------------------------------------------------------------------
171	1.610000e-08	1.158914e-09	-7.39669e-11	
172	1.610492e-08	1.156347e-09	-7.29254e-11	
173	1.611477e-08	1.157009e-09	-7.30697e-11	
174	1.613386e-08	1.160954e-09	-7.43320e-11	
175	1.617205e-08	1.164229e-09	-7.58201e-11	
176	1.623935e-08	1.157066e-09	-7.92145e-11	
177	1.633935e-08	1.163685e-09	-8.34553e-11	
178	1.643935e-08	1.160299e-09	-8.80928e-11	
179	1.653935e-08	1.165982e-09	-9.21047e-11	
180	1.663935e-08	1.163299e-09	-9.64614e-11	
181	1.673935e-08	1.168198e-09	-1.00247e-10	
182	1.683935e-08	1.166141e-09	-1.04355e-10	
183	1.693935e-08	-9.75340e-09	5.634229e-02	
184	1.703935e-08	1.729773e-09	2.474978e+00	
185	1.713935e-08	-3.68152e-09	4.983509e+00	
186	1.723935e-08	-1.29895e-08	5.127177e+00	
187	1.733935e-08	-8.31155e-09	5.232606e+00	
188	1.743935e-08	-1.10917e-08	5.336078e+00	
189	1.753935e-08	-6.75164e-09	5.429987e+00	
190	1.763935e-08	-7.25838e-09	5.523228e+00	
191	1.773935e-08	-3.49374e-09	5.607924e+00	
192	1.783935e-08	-3.97121e-09	5.692274e+00	
193	1.793935e-08	-8.96729e-10	5.768988e+00	
194	1.803935e-08	-3.36542e-06	5.845604e+00	
195	1.813935e-08	3.090634e-03	5.915376e+00	
196	1.823935e-08	7.815423e-03	5.985237e+00	
197	1.833935e-08	1.159793e-02	6.048950e+00	
198	1.843935e-08	1.733686e-02	6.112892e+00	
199	1.853935e-08	2.335953e-02	6.171295e+00	
200	1.863935e-08	3.106628e-02	6.230029e+00	
201	1.873935e-08	3.914611e-02	6.283764e+00	
202	1.883935e-08	4.881836e-02	6.337901e+00	
203	1.893935e-08	5.897282e-02	6.382266e+00	
204	1.903935e-08	7.062454e-02	6.200083e+00	
205	1.913935e-08	8.287233e-02	5.716003e+00	
206	1.923935e-08	9.647455e-02	5.337090e+00	
207	1.933935e-08	1.108425e-01	5.211663e+00	
208	1.943935e-08	1.265074e-01	5.171740e+00	
209	1.953935e-08	1.429763e-01	5.133100e+00	
210	1.963935e-08	1.607195e-01	5.096968e+00	
211	1.973935e-08	1.793968e-01	5.060234e+00	
212	1.983935e-08	1.992513e-01	5.025774e+00	
213	1.993935e-08	2.201472e-01	4.990749e+00	
214	2.003935e-08	2.434092e-01	4.957829e+00	
215	2.013935e-08	2.761209e-01	4.924380e+00	
216	2.023935e-08	3.204963e-01	4.892884e+00	
217	2.033935e-08	3.645794e-01	4.860897e+00	
218	2.043935e-08	4.041342e-01	4.830722e+00	
219	2.053935e-08	4.437257e-01	4.800093e+00	
220	2.063935e-08	4.852529e-01	4.771148e+00	
221	2.073935e-08	5.291027e-01	4.741785e+00	
222	2.083935e-08	5.749263e-01	4.713989e+00	
223	2.093935e-08	6.232421e-01	4.686299e+00	
224	2.103935e-08	6.736183e-01	4.681861e+00	
225	2.113935e-08	7.265146e-01	4.732630e+00	
226	2.123935e-08	7.805357e-01	4.821241e+00	
227	2.133935e-08	8.359776e-01	4.888816e+00	
228	2.143935e-08	8.919003e-01	4.919752e+00	

Index   time            v(5)            v(6)            
--------------------------------------------------------------------------------
229	2.153935e-08	9.491666e-01	4.932364e+00	
230	2.163935e-08	1.006818e+00	4.942799e+00	
231	2.173935e-08	1.065742e+00	4.952598e+00	
232	2.183935e-08	1.124998e+00	4.963243e+00	
233	2.193935e-08	1.185439e+00	4.973381e+00	
234	2.203935e-08	1.246359e+00	4.984293e+00	
235	2.213935e-08	1.309759e+00	4.994723e+00	
236	2.223935e-08	1.376596e+00	5.005858e+00	
237	2.233935e-08	1.446810e+00	5.016535e+00	
238	2.243935e-08	1.516842e+00	5.027853e+00	
239	2.253935e-08	1.586400e+00	5.038737e+00	
240	2.263935e-08	1.655837e+00	5.050205e+00	
241	2.273935e-08	1.726183e+00	5.061259e+00	
242	2.283935e-08	1.796499e+00	5.072845e+00	
243	2.293935e-08	1.866991e+00	5.083992e+00	
244	2.303935e-08	1.937111e+00	5.093531e+00	
245	2.313935e-08	2.007264e+00	5.094850e+00	
246	2.323935e-08	2.076898e+00	5.085493e+00	
247	2.333935e-08	2.146246e+00	5.070559e+00	
248	2.343935e-08	2.214810e+00	5.059568e+00	
249	2.353935e-08	2.282860e+00	5.054219e+00	
250	2.363935e-08	2.350044e+00	5.052511e+00	
251	2.373935e-08	2.416600e+00	5.051273e+00	
252	2.383935e-08	2.482247e+00	5.050325e+00	
253	2.393935e-08	2.547177e+00	5.048928e+00	
254	2.403935e-08	2.611179e+00	5.047686e+00	
255	2.413935e-08	2.674501e+00	5.046023e+00	
256	2.423935e-08	2.737213e+00	5.044502e+00	
257	2.433935e-08	2.799574e+00	5.042591e+00	
258	2.443935e-08	2.861242e+00	5.040811e+00	
259	2.453935e-08	2.921926e+00	5.038668e+00	
260	2.463935e-08	2.981430e+00	5.036646e+00	
261	2.473935e-08	3.039896e+00	5.034288e+00	
262	2.483935e-08	3.097335e+00	5.032041e+00	
263	2.493935e-08	3.153739e+00	5.029486e+00	
264	2.503935e-08	3.209058e+00	5.027235e+00	
265	2.513935e-08	3.263280e+00	5.025680e+00	
266	2.523935e-08	3.316409e+00	5.026302e+00	
267	2.533935e-08	3.368411e+00	5.028863e+00	
268	2.543935e-08	3.419303e+00	5.032422e+00	
269	2.553935e-08	3.469039e+00	5.035208e+00	
270	2.563935e-08	3.517667e+00	5.037159e+00	
271	2.573935e-08	3.565141e+00	5.038361e+00	
272	2.583935e-08	3.611528e+00	5.039543e+00	
273	2.593935e-08	3.656774e+00	5.040597e+00	
274	2.603935e-08	3.700962e+00	5.041846e+00	
275	2.613935e-08	3.744034e+00	5.043023e+00	
276	2.623935e-08	3.786103e+00	5.044387e+00	
277	2.633935e-08	3.827122e+00	5.045686e+00	
278	2.643935e-08	3.867201e+00	5.047161e+00	
279	2.653935e-08	3.906236e+00	5.048577e+00	
280	2.663935e-08	3.944302e+00	5.050158e+00	
281	2.673935e-08	3.981310e+00	5.051685e+00	
282	2.683935e-08	4.017383e+00	5.053367e+00	
283	2.693935e-08	4.052445e+00	5.055001e+00	
284	2.703935e-08	4.086612e+00	5.056759e+00	
285	2.713935e-08	4.119801e+00	5.058358e+00	
286	2.723935e-08	4.152131e+00	5.059770e+00	

Index   time            v(5)            v(6)            
--------------------------------------------------------------------------------
287	2.733935e-08	4.183518e+00	5.060638e+00	
288	2.743935e-08	4.214084e+00	5.061173e+00	
289	2.753935e-08	4.243744e+00	5.061478e+00	
290	2.763935e-08	4.272619e+00	5.061950e+00	
291	2.773935e-08	4.300628e+00	5.062508e+00	
292	2.783935e-08	4.327891e+00	5.063232e+00	
293	2.793935e-08	4.354330e+00	5.063910e+00	
294	2.803935e-08	4.380061e+00	5.064637e+00	
295	2.813935e-08	4.405009e+00	5.065272e+00	
296	2.823935e-08	4.429290e+00	5.065936e+00	
297	2.833935e-08	4.452830e+00	5.066511e+00	
298	2.843935e-08	4.475745e+00	5.067110e+00	
299	2.853935e-08	4.497960e+00	5.067624e+00	
300	2.863935e-08	4.519583e+00	5.068157e+00	
301	2.873935e-08	4.540539e+00	5.068609e+00	
302	2.883935e-08	4.560934e+00	5.069075e+00	
303	2.893935e-08	4.580700e+00	5.069464e+00	
304	2.903935e-08	4.599939e+00	5.069866e+00	
305	2.913935e-08	4.618586e+00	5.070206e+00	
306	2.923935e-08	4.636738e+00	5.070600e+00	
307	2.933935e-08	4.654333e+00	5.071014e+00	
308	2.943935e-08	4.671463e+00	5.071553e+00	
309	2.953935e-08	4.688069e+00	5.072124e+00	
310	2.963935e-08	4.704240e+00	5.072749e+00	
311	2.973935e-08	4.719920e+00	5.073314e+00	
312	2.983935e-08	4.735192e+00	5.073875e+00	
313	2.993935e-08	4.750003e+00	5.074377e+00	
314	3.003935e-08	4.764433e+00	5.074895e+00	
315	3.013935e-08	4.778432e+00	5.075378e+00	
316	3.023935e-08	4.792075e+00	5.075885e+00	
317	3.033935e-08	4.805314e+00	5.076364e+00	
318	3.043935e-08	4.818221e+00	5.076867e+00	
319	3.053935e-08	4.830751e+00	5.077344e+00	
320	3.063935e-08	4.842971e+00	5.077843e+00	
321	3.073935e-08	4.854838e+00	5.078318e+00	
322	3.083935e-08	4.866417e+00	5.078815e+00	
323	3.093935e-08	4.877664e+00	5.079290e+00	
324	3.103935e-08	4.888642e+00	5.079786e+00	
325	3.113935e-08	4.899312e+00	5.080260e+00	
326	3.123935e-08	4.909730e+00	5.080747e+00	
327	3.133935e-08	4.919860e+00	5.081202e+00	
328	3.143935e-08	4.929756e+00	5.081651e+00	
329	3.153935e-08	4.939382e+00	5.082055e+00	
330	3.163935e-08	4.948790e+00	5.082452e+00	
331	3.173935e-08	4.957947e+00	5.082821e+00	
332	3.183935e-08	4.966900e+00	5.083199e+00	
333	3.190000e-08	4.972036e+00	5.083195e+00	
334	3.191000e-08	4.972830e+00	5.083168e+00	
335	3.193000e-08	4.974588e+00	5.083240e+00	
336	3.197000e-08	4.978058e+00	5.083435e+00	
337	3.203371e-08	4.983461e+00	5.083742e+00	
338	3.209348e-08	4.988455e+00	5.083972e+00	
339	3.210000e-08	4.988949e+00	5.083937e+00	
340	3.210125e-08	4.989051e+00	5.083935e+00	
341	3.210375e-08	4.989257e+00	5.083938e+00	
342	3.210875e-08	4.989657e+00	5.083961e+00	
343	3.211876e-08	4.990472e+00	5.084001e+00	
344	3.213525e-08	4.991844e+00	5.084070e+00	

Index   time            v(5)            v(6)            
--------------------------------------------------------------------------------
345	3.216415e-08	4.994228e+00	5.084193e+00	
346	3.222196e-08	4.998929e+00	5.084470e+00	
347	3.232196e-08	5.007055e+00	5.085056e+00	
348	3.242196e-08	5.014846e+00	5.085391e+00	
349	3.252196e-08	5.022436e+00	5.085700e+00	
350	3.262196e-08	5.029877e+00	5.086014e+00	
351	3.272196e-08	5.037133e+00	5.086306e+00	
352	3.282196e-08	5.044249e+00	5.086600e+00	
353	3.292196e-08	5.051191e+00	5.086954e+00	
354	3.302196e-08	5.057979e+00	3.050621e+00	
355	3.312196e-08	5.064636e+00	4.786518e-01	
356	3.317320e-08	5.067778e+00	2.414706e-02	
357	3.323667e-08	5.071910e+00	-6.29462e-02	
358	3.330065e-08	5.076031e+00	-1.21422e-01	
359	3.337230e-08	5.080569e+00	-2.04259e-01	
360	3.347230e-08	5.086950e+00	-2.93358e-01	
361	3.357230e-08	5.092973e+00	-3.96579e-01	
362	3.367230e-08	5.098921e+00	-4.77050e-01	
363	3.377230e-08	5.104703e+00	-5.70413e-01	
364	3.387230e-08	5.110413e+00	-6.43052e-01	
365	3.397230e-08	5.115988e+00	-7.27788e-01	
366	3.407230e-08	5.121956e+00	-7.93657e-01	
367	3.417230e-08	5.129772e+00	-8.70878e-01	
368	3.427230e-08	5.136657e+00	-9.30862e-01	
369	3.437230e-08	5.142863e+00	-1.00194e+00	
370	3.447230e-08	5.149143e+00	-1.05716e+00	
371	3.457230e-08	5.155198e+00	-1.12199e+00	
372	3.467230e-08	5.160975e+00	-1.17242e+00	
373	3.477230e-08	5.166249e+00	-1.23210e+00	
374	3.487230e-08	5.171134e+00	-1.27860e+00	
375	3.497230e-08	5.175525e+00	-1.29105e+00	
376	3.507230e-08	5.179508e+00	-9.91833e-01	
377	3.517230e-08	5.182997e+00	-4.72230e-01	
378	3.527230e-08	5.186061e+00	-1.81697e-01	
379	3.537230e-08	5.188651e+00	-1.18167e-01	
380	3.547230e-08	5.190838e+00	-7.58924e-02	
381	3.557230e-08	5.192534e+00	-4.22508e-02	
382	3.567230e-08	5.193795e+00	-1.21837e-03	
383	3.577230e-08	5.194563e+00	3.085452e-02	
384	3.587230e-08	5.194904e+00	6.986891e-02	
385	3.597230e-08	5.194722e+00	1.005688e-01	
386	3.607230e-08	5.193422e+00	1.377039e-01	
387	3.617230e-08	5.187684e+00	1.671380e-01	
388	3.627230e-08	5.177357e+00	2.025364e-01	
389	3.637230e-08	5.167820e+00	2.308391e-01	
390	3.647230e-08	5.159817e+00	2.647133e-01	
391	3.657230e-08	5.151595e+00	2.919478e-01	
392	3.667230e-08	5.142551e+00	3.242611e-01	
393	3.677230e-08	5.132559e+00	3.504257e-01	
394	3.687230e-08	5.121726e+00	3.813268e-01	
395	3.697230e-08	5.109918e+00	4.025578e-01	
396	3.707230e-08	5.097284e+00	3.950689e-01	
397	3.717230e-08	5.083658e+00	3.227423e-01	
398	3.727230e-08	5.069211e+00	2.353806e-01	
399	3.737230e-08	5.053760e+00	1.785891e-01	
400	3.747230e-08	5.037501e+00	1.596139e-01	
401	3.757230e-08	5.020243e+00	1.468821e-01	
402	3.767230e-08	5.002172e+00	1.388173e-01	

Index   time            v(5)            v(6)            
--------------------------------------------------------------------------------
403	3.777230e-08	4.983098e+00	1.268106e-01	
404	3.787230e-08	4.963203e+00	1.182474e-01	
405	3.797230e-08	4.942299e+00	1.060576e-01	
406	3.807230e-08	4.920393e+00	9.707057e-02	
407	3.817230e-08	4.896388e+00	8.473499e-02	
408	3.827230e-08	4.869297e+00	7.537882e-02	
409	3.837230e-08	4.839755e+00	6.292668e-02	
410	3.847230e-08	4.809765e+00	5.323713e-02	
411	3.857230e-08	4.779590e+00	4.068732e-02	
412	3.867230e-08	4.748751e+00	3.072038e-02	
413	3.877230e-08	4.716729e+00	1.812357e-02	
414	3.887230e-08	4.683545e+00	7.929253e-03	
415	3.897230e-08	4.649075e+00	-4.32694e-03	
416	3.907230e-08	4.613397e+00	-1.07815e-02	
417	3.917230e-08	4.576402e+00	-9.73515e-03	
418	3.927230e-08	4.538147e+00	3.910746e-03	
419	3.937230e-08	4.498534e+00	1.756723e-02	
420	3.947230e-08	4.457600e+00	2.760666e-02	
421	3.957230e-08	4.415259e+00	3.022306e-02	
422	3.967230e-08	4.371535e+00	3.244244e-02	
423	3.977230e-08	4.326564e+00	3.259090e-02	
424	3.987230e-08	4.280651e+00	3.453639e-02	
425	3.997230e-08	4.233847e+00	3.499973e-02	
426	4.007230e-08	4.186194e+00	3.716134e-02	
427	4.017230e-08	4.137524e+00	3.794978e-02	
428	4.027230e-08	4.087556e+00	4.031235e-02	
429	4.037230e-08	4.036103e+00	4.140321e-02	
430	4.047230e-08	3.983524e+00	4.395458e-02	
431	4.057230e-08	3.930264e+00	4.532939e-02	
432	4.067230e-08	3.876477e+00	4.805756e-02	
433	4.077230e-08	3.822029e+00	4.969358e-02	
434	4.087230e-08	3.766829e+00	5.258255e-02	
435	4.097230e-08	3.710835e+00	5.442543e-02	
436	4.107230e-08	3.654060e+00	5.705299e-02	
437	4.117230e-08	3.596498e+00	5.738594e-02	
438	4.127230e-08	3.538163e+00	5.647028e-02	
439	4.137230e-08	3.479050e+00	5.273817e-02	
440	4.147230e-08	3.419165e+00	4.964790e-02	
441	4.157230e-08	3.358503e+00	4.658621e-02	
442	4.167230e-08	3.297067e+00	4.530259e-02	
443	4.177230e-08	3.234868e+00	4.362243e-02	
444	4.187230e-08	3.172243e+00	4.279866e-02	
445	4.197230e-08	3.109675e+00	4.117161e-02	
446	4.207230e-08	3.047382e+00	4.021100e-02	
447	4.217230e-08	2.985414e+00	3.848481e-02	
448	4.227230e-08	2.923780e+00	3.737292e-02	
449	4.237230e-08	2.862470e+00	3.554960e-02	
450	4.247230e-08	2.801523e+00	3.429351e-02	
451	4.257230e-08	2.741041e+00	3.237604e-02	
452	4.267230e-08	2.681136e+00	3.098231e-02	
453	4.277230e-08	2.621863e+00	2.897421e-02	
454	4.287230e-08	2.563236e+00	2.745027e-02	
455	4.297230e-08	2.505264e+00	2.535896e-02	
456	4.307230e-08	2.447962e+00	2.375420e-02	
457	4.317230e-08	2.391355e+00	2.179310e-02	
458	4.327230e-08	2.335461e+00	2.064375e-02	
459	4.337230e-08	2.280302e+00	1.953065e-02	
460	4.347230e-08	2.225891e+00	1.919215e-02	

Index   time            v(5)            v(6)            
--------------------------------------------------------------------------------
461	4.357230e-08	2.172247e+00	1.849345e-02	
462	4.367230e-08	2.119379e+00	1.804681e-02	
463	4.377230e-08	2.067301e+00	1.706648e-02	
464	4.387230e-08	2.016040e+00	1.638381e-02	
465	4.397230e-08	1.965659e+00	1.534227e-02	
466	4.407230e-08	1.916218e+00	1.466319e-02	
467	4.417230e-08	1.867754e+00	1.368442e-02	
468	4.427230e-08	1.820271e+00	1.305088e-02	
469	4.437230e-08	1.773772e+00	1.214318e-02	
470	4.447230e-08	1.728249e+00	1.155815e-02	
471	4.457230e-08	1.683707e+00	1.072176e-02	
472	4.467230e-08	1.640149e+00	1.018707e-02	
473	4.477230e-08	1.597584e+00	9.422020e-03	
474	4.487230e-08	1.556004e+00	8.939031e-03	
475	4.497230e-08	1.515405e+00	8.244698e-03	
476	4.507230e-08	1.475771e+00	7.810089e-03	
477	4.517230e-08	1.437097e+00	7.161190e-03	
478	4.527230e-08	1.399365e+00	6.699068e-03	
479	4.537230e-08	1.362570e+00	5.954390e-03	
480	4.547230e-08	1.326694e+00	5.319757e-03	
481	4.557230e-08	1.291729e+00	4.436533e-03	
482	4.567230e-08	1.257656e+00	3.737263e-03	
483	4.577230e-08	1.224464e+00	2.892438e-03	
484	4.587230e-08	1.192136e+00	2.254146e-03	
485	4.597230e-08	1.160663e+00	1.471753e-03	
486	4.607230e-08	1.130029e+00	8.575954e-04	
487	4.617230e-08	1.100229e+00	9.351648e-05	
488	4.627230e-08	1.071244e+00	-5.21764e-04	
489	4.637230e-08	1.043061e+00	-1.27824e-03	
490	4.647230e-08	1.015658e+00	-1.89761e-03	
491	4.657230e-08	9.890217e-01	-2.64832e-03	
492	4.667230e-08	9.631291e-01	-3.27243e-03	
493	4.677230e-08	9.379683e-01	-4.01872e-03	
494	4.687230e-08	9.135169e-01	-4.64816e-03	
495	4.697230e-08	8.897618e-01	-5.39124e-03	
496	4.700000e-08	8.831034e-01	-5.53139e-03	


