
Circuit: ************ test circuit for transmission simulation **************

