
Circuit: ************** 4-LOSSY TRANSMISSION LINES **************

