
Circuit: *** NDINV * 4

Error on line 79 : .model n10l5 nmos  level=6 tpg=1  kc=3.8921e-05 nc=1.1739 kv=0.91602 nv=0.87225  lambda0=0.013333 lambda1=0.0046901 vt0=0.69486 gamma=0.60309 phi=1  tox=1.9800000e-08  xj=0.2u            ld=0.1u           nsub=4.9999999e+16  nss=0.0000000e+00  cj=4.091e-4        mj=0.307           pb=1.0  cjsw=3.078e-10     mjsw=1.0e-2  cgso=3.93e-10      cgdo=3.93e-10
	unrecognized parameter (xj) - ignored
	
	unrecognized parameter (0.2u) - ignored
Error on line 89 : .model p12l5 pmos  level=6 tpg=-1  kc=6.42696e-06 nc=1.6536 kv=0.92145 nv=0.88345  lambda0=0.018966 lambda1=0.0084012 vt0=-0.60865 gamma=0.89213 phi=1  tox=1.9800000e-08  xj=0.4u            ld=0.28u           nsub=4.9999999e+17  nss=0.0000000e+00  cj=6.852e-4        mj=0.429           pb=1.0  cjsw=5.217e-10     mjsw=0.351  cgso=7.29e-10      cgdo=7.29e-10
	unrecognized parameter (xj) - ignored
	
	unrecognized parameter (0.4u) - ignored
Doing analysis at TEMP = 300.150000 and TNOM = 300.150000

Initial Transient Solution
--------------------------

Node                                   Voltage
----                                   -------
11                                           5
100                                          5
1                                            0
ndinv1:12                              3.61293
ndinv1:13                              3.61293
ndinv1:14                              3.61293
ndinv1:23                                    5
ndinv1:22                              1.59002
12                                 1.43643e-08
13                                           5
ndinv1:32                         7.47791e-206
2                                  6.07304e-09
21                                           5
ndinv2:12                              3.61293
ndinv2:13                              3.61293
ndinv2:14                              3.61293
ndinv2:23                                    5
ndinv2:22                              1.59002
22                                 1.43643e-08
23                                           5
ndinv2:32                         1.44672e-207
3                                  6.07304e-09
31                                           5
ndinv3:12                              3.61293
ndinv3:13                              3.61293
ndinv3:14                              3.61293
ndinv3:23                                    5
ndinv3:22                              1.59004
32                                 1.43643e-08
33                                           5
ndinv3:32                        -1.04135e-115
4                                  6.07304e-09
41                                           5
ndinv4:12                              3.61293
ndinv4:13                              3.61293
ndinv4:14                              3.61292
ndinv4:23                                    5
ndinv4:22                              1.59083
42                                 1.43624e-08
43                                           5
ndinv4:32                         -8.95202e-88
5                                  6.07304e-09
vin#branch                                   0
vdd#branch                        -1.94468e-10

                                 *** NDINV * 4
                                 Transient Analysis  Sat Aug 27 16:31:59  2005
--------------------------------------------------------------------------------
Index   time            v(1)            v(2)            v(3)            
--------------------------------------------------------------------------------
0	0.000000e+00	0.000000e+00	6.073044e-09	6.073044e-09	
1	5.000000e-12	1.250000e-02	6.139822e-09	6.072904e-09	
2	1.000000e-11	2.500000e-02	6.205723e-09	6.072764e-09	
3	2.000000e-11	5.000000e-02	6.335817e-09	6.072487e-09	
4	4.000000e-11	1.000000e-01	6.586155e-09	6.071944e-09	
5	8.000000e-11	2.000000e-01	7.050473e-09	6.070894e-09	
6	1.600000e-10	4.000000e-01	7.851233e-09	6.068933e-09	
7	1.800000e-10	4.500000e-01	8.022372e-09	6.068477e-09	
8	2.200000e-10	5.500000e-01	8.347904e-09	6.067584e-09	
9	3.000000e-10	7.500000e-01	8.906914e-09	6.065922e-09	
10	4.600000e-10	1.150000e+00	8.847684e-09	6.063046e-09	
11	6.354757e-10	1.588689e+00	2.139844e-09	6.060504e-09	
12	8.960570e-10	2.240143e+00	-2.797049e-08	6.057707e-09	
13	1.196298e-09	2.990745e+00	-7.162840e-08	6.055650e-09	
14	1.610915e-09	4.027287e+00	-1.028679e-07	6.054302e-09	
15	2.000000e-09	5.000000e+00	-1.013340e-07	6.054152e-09	
16	2.050000e-09	5.000000e+00	-9.996482e-08	6.054198e-09	
17	2.150000e-09	5.000000e+00	-9.664682e-08	6.054308e-09	
18	2.350000e-09	5.000000e+00	-8.697821e-08	6.054635e-09	
19	2.750000e-09	5.000000e+00	-6.068391e-08	6.055602e-09	
20	3.250000e-09	5.000000e+00	-1.882771e-08	6.057179e-09	
21	3.750000e-09	5.000000e+00	1.235013e-06	6.058939e-09	
22	4.235270e-09	5.000000e+00	3.912871e-06	6.060666e-09	
23	4.735270e-09	5.000000e+00	6.554394e-06	6.062365e-09	
24	5.235270e-09	5.000000e+00	8.532872e-06	6.063933e-09	
25	5.735270e-09	5.000000e+00	1.002130e-05	6.065354e-09	
26	6.235270e-09	5.000000e+00	1.111304e-05	6.066620e-09	
27	6.735270e-09	5.000000e+00	1.196879e-05	6.067738e-09	
28	7.235270e-09	5.000000e+00	1.276181e-05	6.068715e-09	
29	7.735270e-09	5.000000e+00	1.370884e-05	6.069564e-09	
30	8.235270e-09	5.000000e+00	1.509320e-05	6.070298e-09	
31	8.735270e-09	5.000000e+00	-8.270615e-06	6.070852e-09	
32	9.235270e-09	5.000000e+00	-9.734072e-05	6.071194e-09	
33	9.735270e-09	5.000000e+00	-2.608076e-04	6.071459e-09	
34	1.023527e-08	5.000000e+00	-4.879628e-04	6.071756e-09	
35	1.073527e-08	5.000000e+00	-7.726609e-04	6.072090e-09	
36	1.123527e-08	5.000000e+00	-1.111678e-03	6.072442e-09	
37	1.173527e-08	5.000000e+00	-1.504544e-03	6.072788e-09	
38	1.223527e-08	5.000000e+00	-1.953972e-03	6.073101e-09	
39	1.273527e-08	5.000000e+00	-2.467429e-03	6.073355e-09	
40	1.323527e-08	5.000000e+00	-3.059960e-03	6.073525e-09	
41	1.373527e-08	5.000000e+00	-3.080746e-03	6.075686e-09	
42	1.423527e-08	5.000000e+00	-1.009192e-04	6.085247e-09	
43	1.473527e-08	5.000000e+00	9.300835e-03	6.103709e-09	
44	1.523527e-08	5.000000e+00	2.838013e-02	6.127487e-09	
45	1.573527e-08	5.000000e+00	6.031830e-02	6.153155e-09	
46	1.623527e-08	5.000000e+00	1.082457e-01	6.178334e-09	
47	1.673527e-08	5.000000e+00	1.753935e-01	6.202842e-09	
48	1.723527e-08	5.000000e+00	2.648652e-01	6.226900e-09	
49	1.773527e-08	5.000000e+00	3.799908e-01	6.252582e-09	
50	1.823527e-08	5.000000e+00	5.262788e-01	6.288956e-09	
51	1.873527e-08	5.000000e+00	7.165873e-01	6.362975e-09	
52	1.923527e-08	5.000000e+00	9.669387e-01	3.221768e-09	
53	1.973527e-08	5.000000e+00	1.279988e+00	-9.466130e-09	
54	2.023527e-08	5.000000e+00	1.646110e+00	-2.914678e-08	

Index   time            v(1)            v(2)            v(3)            
--------------------------------------------------------------------------------
55	2.073527e-08	5.000000e+00	2.055672e+00	-4.890039e-08	
56	2.123527e-08	5.000000e+00	2.490459e+00	-6.124372e-08	
57	2.173527e-08	5.000000e+00	2.921621e+00	-5.678892e-08	
58	2.223527e-08	5.000000e+00	3.322401e+00	-4.025824e-08	
59	2.273527e-08	5.000000e+00	3.676345e+00	-2.338167e-08	
60	2.323527e-08	5.000000e+00	3.975577e+00	2.605919e-07	
61	2.373527e-08	5.000000e+00	4.219430e+00	1.954364e-06	
62	2.423527e-08	5.000000e+00	4.412595e+00	4.625093e-06	
63	2.473527e-08	5.000000e+00	4.562194e+00	6.877824e-06	
64	2.523527e-08	5.000000e+00	4.676060e+00	8.653036e-06	
65	2.573527e-08	5.000000e+00	4.761559e+00	1.001376e-05	
66	2.623527e-08	5.000000e+00	4.825116e+00	1.105411e-05	
67	2.673527e-08	5.000000e+00	4.871993e+00	1.190898e-05	
68	2.723527e-08	5.000000e+00	4.906381e+00	1.274668e-05	
69	2.773527e-08	5.000000e+00	4.931497e+00	1.378134e-05	
70	2.823527e-08	5.000000e+00	4.949798e+00	1.530806e-05	
71	2.873527e-08	5.000000e+00	4.963105e+00	-1.643185e-05	
72	2.923527e-08	5.000000e+00	4.972781e+00	-1.202357e-04	
73	2.973527e-08	5.000000e+00	4.979812e+00	-2.954300e-04	
74	3.023527e-08	5.000000e+00	4.984931e+00	-5.325541e-04	
75	3.073527e-08	5.000000e+00	4.988658e+00	-8.261722e-04	
76	3.123527e-08	5.000000e+00	4.991387e+00	-1.173738e-03	
77	3.173527e-08	5.000000e+00	4.993388e+00	-1.575335e-03	
78	3.223527e-08	5.000000e+00	4.994866e+00	-2.034343e-03	
79	3.273527e-08	5.000000e+00	4.995961e+00	-2.559227e-03	
80	3.323527e-08	5.000000e+00	4.996780e+00	-3.166701e-03	
81	3.373527e-08	5.000000e+00	4.997395e+00	-2.908868e-03	
82	3.423527e-08	5.000000e+00	4.997863e+00	9.072562e-04	
83	3.473527e-08	5.000000e+00	4.998219e+00	1.167933e-02	
84	3.523527e-08	5.000000e+00	4.998496e+00	3.265866e-02	
85	3.573527e-08	5.000000e+00	4.998711e+00	6.700389e-02	
86	3.623527e-08	5.000000e+00	4.998883e+00	1.178548e-01	
87	3.673527e-08	5.000000e+00	4.999020e+00	1.884152e-01	
88	3.723527e-08	5.000000e+00	4.999133e+00	2.818719e-01	
89	3.773527e-08	5.000000e+00	4.999226e+00	4.017420e-01	
90	3.823527e-08	5.000000e+00	4.999306e+00	5.541445e-01	
91	3.873527e-08	5.000000e+00	4.999373e+00	7.536218e-01	
92	3.923527e-08	5.000000e+00	4.999432e+00	1.015237e+00	
93	3.973527e-08	5.000000e+00	4.999483e+00	1.337798e+00	
94	4.023527e-08	5.000000e+00	4.999530e+00	1.711780e+00	
95	4.073527e-08	5.000000e+00	4.999570e+00	2.127673e+00	
96	4.123527e-08	5.000000e+00	4.999608e+00	2.564605e+00	
97	4.173527e-08	5.000000e+00	4.999641e+00	2.992192e+00	
98	4.223527e-08	5.000000e+00	4.999672e+00	3.385894e+00	
99	4.273527e-08	5.000000e+00	4.999700e+00	3.730914e+00	
100	4.323527e-08	5.000000e+00	4.999726e+00	4.020600e+00	
101	4.373527e-08	5.000000e+00	4.999749e+00	4.255476e+00	
102	4.423527e-08	5.000000e+00	4.999771e+00	4.440719e+00	
103	4.473527e-08	5.000000e+00	4.999790e+00	4.583745e+00	
104	4.523527e-08	5.000000e+00	4.999808e+00	4.692305e+00	
105	4.573527e-08	5.000000e+00	4.999825e+00	4.773688e+00	
106	4.623527e-08	5.000000e+00	4.999840e+00	4.834075e+00	
107	4.673527e-08	5.000000e+00	4.999854e+00	4.878587e+00	
108	4.723527e-08	5.000000e+00	4.999867e+00	4.911196e+00	
109	4.773527e-08	5.000000e+00	4.999878e+00	4.935015e+00	
110	4.823527e-08	5.000000e+00	4.999889e+00	4.952351e+00	
111	4.873527e-08	5.000000e+00	4.999898e+00	4.964968e+00	
112	4.923527e-08	5.000000e+00	4.999908e+00	4.974130e+00	

Index   time            v(1)            v(2)            v(3)            
--------------------------------------------------------------------------------
113	4.973527e-08	5.000000e+00	4.999916e+00	4.980800e+00	
114	5.023527e-08	5.000000e+00	4.999923e+00	4.985645e+00	
115	5.073527e-08	5.000000e+00	4.999930e+00	4.989185e+00	
116	5.123527e-08	5.000000e+00	4.999936e+00	4.991768e+00	
117	5.173527e-08	5.000000e+00	4.999942e+00	4.993673e+00	
118	5.223527e-08	5.000000e+00	4.999947e+00	4.995073e+00	
119	5.273527e-08	5.000000e+00	4.999952e+00	4.996119e+00	
120	5.323527e-08	5.000000e+00	4.999956e+00	4.996895e+00	
121	5.373527e-08	5.000000e+00	4.999960e+00	4.997486e+00	
122	5.423527e-08	5.000000e+00	4.999964e+00	4.997929e+00	
123	5.473527e-08	5.000000e+00	4.999967e+00	4.998273e+00	
124	5.523527e-08	5.000000e+00	4.999970e+00	4.998535e+00	
125	5.573527e-08	5.000000e+00	4.999972e+00	4.998745e+00	
126	5.623527e-08	5.000000e+00	4.999975e+00	4.998907e+00	
127	5.673527e-08	5.000000e+00	4.999977e+00	4.999042e+00	
128	5.723527e-08	5.000000e+00	4.999979e+00	4.999149e+00	
129	5.773527e-08	5.000000e+00	4.999981e+00	4.999242e+00	
130	5.823527e-08	5.000000e+00	4.999983e+00	4.999317e+00	
131	5.873527e-08	5.000000e+00	4.999984e+00	4.999385e+00	
132	5.923527e-08	5.000000e+00	4.999986e+00	4.999440e+00	
133	5.973527e-08	5.000000e+00	4.999987e+00	4.999493e+00	
134	6.023527e-08	5.000000e+00	4.999988e+00	4.999536e+00	
135	6.073527e-08	5.000000e+00	4.999989e+00	4.999578e+00	
136	6.123527e-08	5.000000e+00	4.999990e+00	4.999613e+00	
137	6.173527e-08	5.000000e+00	4.999991e+00	4.999648e+00	
138	6.223527e-08	5.000000e+00	4.999992e+00	4.999676e+00	
139	6.273527e-08	5.000000e+00	4.999993e+00	4.999705e+00	
140	6.323527e-08	5.000000e+00	4.999993e+00	4.999729e+00	
141	6.373238e-08	5.000000e+00	4.999994e+00	4.999754e+00	
142	6.423238e-08	5.000000e+00	4.999994e+00	4.999773e+00	
143	6.473238e-08	5.000000e+00	4.999995e+00	4.999794e+00	
144	6.523238e-08	5.000000e+00	4.999995e+00	4.999811e+00	
145	6.573238e-08	5.000000e+00	4.999996e+00	4.999828e+00	
146	6.623238e-08	5.000000e+00	4.999996e+00	4.999842e+00	
147	6.673238e-08	5.000000e+00	4.999997e+00	4.999857e+00	
148	6.723238e-08	5.000000e+00	4.999997e+00	4.999868e+00	
149	6.773238e-08	5.000000e+00	4.999997e+00	4.999881e+00	
150	6.823238e-08	5.000000e+00	4.999997e+00	4.999890e+00	
151	6.873238e-08	5.000000e+00	4.999998e+00	4.999901e+00	
152	6.923238e-08	5.000000e+00	4.999998e+00	4.999908e+00	
153	6.973238e-08	5.000000e+00	4.999998e+00	4.999917e+00	
154	7.023238e-08	5.000000e+00	4.999998e+00	4.999924e+00	
155	7.073238e-08	5.000000e+00	4.999998e+00	4.999931e+00	
156	7.123238e-08	5.000000e+00	4.999999e+00	4.999937e+00	
157	7.173238e-08	5.000000e+00	4.999999e+00	4.999943e+00	
158	7.223238e-08	5.000000e+00	4.999999e+00	4.999947e+00	
159	7.273238e-08	5.000000e+00	4.999999e+00	4.999953e+00	
160	7.323238e-08	5.000000e+00	4.999999e+00	4.999956e+00	
161	7.373238e-08	5.000000e+00	4.999999e+00	4.999961e+00	
162	7.423238e-08	5.000000e+00	4.999999e+00	4.999964e+00	
163	7.473238e-08	5.000000e+00	4.999999e+00	4.999968e+00	
164	7.523238e-08	5.000000e+00	4.999999e+00	4.999970e+00	
165	7.573238e-08	5.000000e+00	4.999999e+00	4.999973e+00	
166	7.623238e-08	5.000000e+00	4.999999e+00	4.999975e+00	
167	7.673238e-08	5.000000e+00	4.999999e+00	4.999978e+00	
168	7.723238e-08	5.000000e+00	5.000000e+00	4.999979e+00	
169	7.773238e-08	5.000000e+00	5.000000e+00	4.999982e+00	
170	7.823238e-08	5.000000e+00	5.000000e+00	4.999983e+00	

Index   time            v(1)            v(2)            v(3)            
--------------------------------------------------------------------------------
171	7.873238e-08	5.000000e+00	5.000000e+00	4.999985e+00	
172	7.923238e-08	5.000000e+00	5.000000e+00	4.999986e+00	
173	7.973238e-08	5.000000e+00	5.000000e+00	4.999987e+00	
174	8.023238e-08	5.000000e+00	5.000000e+00	4.999988e+00	
175	8.073238e-08	5.000000e+00	5.000000e+00	4.999990e+00	
176	8.123238e-08	5.000000e+00	5.000000e+00	4.999990e+00	
177	8.173238e-08	5.000000e+00	5.000000e+00	4.999991e+00	
178	8.223238e-08	5.000000e+00	5.000000e+00	4.999992e+00	
179	8.273238e-08	5.000000e+00	5.000000e+00	4.999993e+00	
180	8.323238e-08	5.000000e+00	5.000000e+00	4.999993e+00	
181	8.373238e-08	5.000000e+00	5.000000e+00	4.999994e+00	
182	8.423238e-08	5.000000e+00	5.000000e+00	4.999994e+00	
183	8.473238e-08	5.000000e+00	5.000000e+00	4.999995e+00	
184	8.523238e-08	5.000000e+00	5.000000e+00	4.999995e+00	
185	8.573238e-08	5.000000e+00	5.000000e+00	4.999996e+00	
186	8.623238e-08	5.000000e+00	5.000000e+00	4.999996e+00	
187	8.673238e-08	5.000000e+00	5.000000e+00	4.999997e+00	
188	8.723238e-08	5.000000e+00	5.000000e+00	4.999997e+00	
189	8.773238e-08	5.000000e+00	5.000000e+00	4.999997e+00	
190	8.823238e-08	5.000000e+00	5.000000e+00	4.999997e+00	
191	8.873238e-08	5.000000e+00	5.000000e+00	4.999998e+00	
192	8.923238e-08	5.000000e+00	5.000000e+00	4.999998e+00	
193	8.973238e-08	5.000000e+00	5.000000e+00	4.999998e+00	
194	9.023238e-08	5.000000e+00	5.000000e+00	4.999998e+00	
195	9.073238e-08	5.000000e+00	5.000000e+00	4.999998e+00	
196	9.123238e-08	5.000000e+00	5.000000e+00	4.999998e+00	
197	9.173238e-08	5.000000e+00	5.000000e+00	4.999999e+00	
198	9.223238e-08	5.000000e+00	5.000000e+00	4.999999e+00	
199	9.273238e-08	5.000000e+00	5.000000e+00	4.999999e+00	
200	9.323238e-08	5.000000e+00	5.000000e+00	4.999999e+00	
201	9.373238e-08	5.000000e+00	5.000000e+00	4.999999e+00	
202	9.423238e-08	5.000000e+00	5.000000e+00	4.999999e+00	
203	9.473238e-08	5.000000e+00	5.000000e+00	4.999999e+00	
204	9.523238e-08	5.000000e+00	5.000000e+00	4.999999e+00	
205	9.573238e-08	5.000000e+00	5.000000e+00	4.999999e+00	
206	9.623238e-08	5.000000e+00	5.000000e+00	4.999999e+00	
207	9.673238e-08	5.000000e+00	5.000000e+00	5.000000e+00	
208	9.723238e-08	5.000000e+00	5.000000e+00	4.999999e+00	
209	9.773238e-08	5.000000e+00	5.000000e+00	5.000000e+00	
210	9.823238e-08	5.000000e+00	5.000000e+00	5.000000e+00	
211	9.873238e-08	5.000000e+00	5.000000e+00	5.000000e+00	
212	9.923238e-08	5.000000e+00	5.000000e+00	5.000000e+00	
213	9.973238e-08	5.000000e+00	5.000000e+00	5.000000e+00	
214	1.002324e-07	5.000000e+00	5.000000e+00	5.000000e+00	
215	1.007324e-07	5.000000e+00	5.000000e+00	5.000000e+00	
216	1.012324e-07	5.000000e+00	5.000000e+00	5.000000e+00	
217	1.017324e-07	5.000000e+00	5.000000e+00	5.000000e+00	
218	1.022324e-07	5.000000e+00	5.000000e+00	5.000000e+00	
219	1.027324e-07	5.000000e+00	5.000000e+00	5.000000e+00	
220	1.032324e-07	5.000000e+00	5.000000e+00	5.000000e+00	
221	1.037324e-07	5.000000e+00	5.000000e+00	5.000000e+00	
222	1.042324e-07	5.000000e+00	5.000000e+00	5.000000e+00	
223	1.047324e-07	5.000000e+00	5.000000e+00	5.000000e+00	
224	1.052324e-07	5.000000e+00	5.000000e+00	5.000000e+00	
225	1.057324e-07	5.000000e+00	5.000000e+00	5.000000e+00	
226	1.062324e-07	5.000000e+00	5.000000e+00	5.000000e+00	
227	1.067324e-07	5.000000e+00	5.000000e+00	5.000000e+00	
228	1.072324e-07	5.000000e+00	5.000000e+00	5.000000e+00	

Index   time            v(1)            v(2)            v(3)            
--------------------------------------------------------------------------------
229	1.077324e-07	5.000000e+00	5.000000e+00	5.000000e+00	
230	1.082324e-07	5.000000e+00	5.000000e+00	5.000000e+00	
231	1.087324e-07	5.000000e+00	5.000000e+00	5.000000e+00	
232	1.092324e-07	5.000000e+00	5.000000e+00	5.000000e+00	
233	1.097324e-07	5.000000e+00	5.000000e+00	5.000000e+00	
234	1.102324e-07	5.000000e+00	5.000000e+00	5.000000e+00	
235	1.107324e-07	5.000000e+00	5.000000e+00	5.000000e+00	
236	1.112324e-07	5.000000e+00	5.000000e+00	5.000000e+00	
237	1.117324e-07	5.000000e+00	5.000000e+00	5.000000e+00	
238	1.122324e-07	5.000000e+00	5.000000e+00	5.000000e+00	
239	1.127324e-07	5.000000e+00	5.000000e+00	5.000000e+00	
240	1.132324e-07	5.000000e+00	5.000000e+00	5.000000e+00	
241	1.137324e-07	5.000000e+00	5.000000e+00	5.000000e+00	
242	1.142324e-07	5.000000e+00	5.000000e+00	5.000000e+00	
243	1.147324e-07	5.000000e+00	5.000000e+00	5.000000e+00	
244	1.152324e-07	5.000000e+00	5.000000e+00	5.000000e+00	
245	1.157324e-07	5.000000e+00	5.000000e+00	5.000000e+00	
246	1.162324e-07	5.000000e+00	5.000000e+00	5.000000e+00	
247	1.167324e-07	5.000000e+00	5.000000e+00	5.000000e+00	
248	1.172324e-07	5.000000e+00	5.000000e+00	5.000000e+00	
249	1.177324e-07	5.000000e+00	5.000000e+00	5.000000e+00	
250	1.182324e-07	5.000000e+00	5.000000e+00	5.000000e+00	
251	1.187324e-07	5.000000e+00	5.000000e+00	5.000000e+00	
252	1.192324e-07	5.000000e+00	5.000000e+00	5.000000e+00	
253	1.197324e-07	5.000000e+00	5.000000e+00	5.000000e+00	
254	1.202324e-07	5.000000e+00	5.000000e+00	5.000000e+00	
255	1.207324e-07	5.000000e+00	5.000000e+00	5.000000e+00	
256	1.212324e-07	5.000000e+00	5.000000e+00	5.000000e+00	
257	1.217324e-07	5.000000e+00	5.000000e+00	5.000000e+00	
258	1.222324e-07	5.000000e+00	5.000000e+00	5.000000e+00	
259	1.227324e-07	5.000000e+00	5.000000e+00	5.000000e+00	
260	1.232324e-07	5.000000e+00	5.000000e+00	5.000000e+00	
261	1.237324e-07	5.000000e+00	5.000000e+00	5.000000e+00	
262	1.242324e-07	5.000000e+00	5.000000e+00	5.000000e+00	
263	1.247324e-07	5.000000e+00	5.000000e+00	5.000000e+00	
264	1.252324e-07	5.000000e+00	5.000000e+00	5.000000e+00	
265	1.257324e-07	5.000000e+00	5.000000e+00	5.000000e+00	
266	1.262324e-07	5.000000e+00	5.000000e+00	5.000000e+00	
267	1.267324e-07	5.000000e+00	5.000000e+00	5.000000e+00	
268	1.272324e-07	5.000000e+00	5.000000e+00	5.000000e+00	
269	1.277324e-07	5.000000e+00	5.000000e+00	5.000000e+00	
270	1.282324e-07	5.000000e+00	5.000000e+00	5.000000e+00	
271	1.287324e-07	5.000000e+00	5.000000e+00	5.000000e+00	
272	1.292324e-07	5.000000e+00	5.000000e+00	5.000000e+00	
273	1.297324e-07	5.000000e+00	5.000000e+00	5.000000e+00	
274	1.302324e-07	5.000000e+00	5.000000e+00	5.000000e+00	
275	1.307324e-07	5.000000e+00	5.000000e+00	5.000000e+00	
276	1.312324e-07	5.000000e+00	5.000000e+00	5.000000e+00	
277	1.317324e-07	5.000000e+00	5.000000e+00	5.000000e+00	
278	1.322324e-07	5.000000e+00	5.000000e+00	5.000000e+00	
279	1.327324e-07	5.000000e+00	5.000000e+00	5.000000e+00	
280	1.332324e-07	5.000000e+00	5.000000e+00	5.000000e+00	
281	1.337324e-07	5.000000e+00	5.000000e+00	5.000000e+00	
282	1.342324e-07	5.000000e+00	5.000000e+00	5.000000e+00	
283	1.347324e-07	5.000000e+00	5.000000e+00	5.000000e+00	
284	1.352324e-07	5.000000e+00	5.000000e+00	5.000000e+00	
285	1.357324e-07	5.000000e+00	5.000000e+00	5.000000e+00	
286	1.362324e-07	5.000000e+00	5.000000e+00	5.000000e+00	

Index   time            v(1)            v(2)            v(3)            
--------------------------------------------------------------------------------
287	1.367324e-07	5.000000e+00	5.000000e+00	5.000000e+00	
288	1.372324e-07	5.000000e+00	5.000000e+00	5.000000e+00	
289	1.377324e-07	5.000000e+00	5.000000e+00	5.000000e+00	
290	1.382324e-07	5.000000e+00	5.000000e+00	5.000000e+00	
291	1.387324e-07	5.000000e+00	5.000000e+00	5.000000e+00	
292	1.392324e-07	5.000000e+00	5.000000e+00	5.000000e+00	
293	1.397324e-07	5.000000e+00	5.000000e+00	5.000000e+00	
294	1.402324e-07	5.000000e+00	5.000000e+00	5.000000e+00	
295	1.407324e-07	5.000000e+00	5.000000e+00	5.000000e+00	
296	1.412324e-07	5.000000e+00	5.000000e+00	5.000000e+00	
297	1.417324e-07	5.000000e+00	5.000000e+00	5.000000e+00	
298	1.422324e-07	5.000000e+00	5.000000e+00	5.000000e+00	
299	1.427324e-07	5.000000e+00	5.000000e+00	5.000000e+00	
300	1.432324e-07	5.000000e+00	5.000000e+00	5.000000e+00	
301	1.437324e-07	5.000000e+00	5.000000e+00	5.000000e+00	
302	1.442324e-07	5.000000e+00	5.000000e+00	5.000000e+00	
303	1.447324e-07	5.000000e+00	5.000000e+00	5.000000e+00	
304	1.452324e-07	5.000000e+00	5.000000e+00	5.000000e+00	
305	1.457324e-07	5.000000e+00	5.000000e+00	5.000000e+00	
306	1.462324e-07	5.000000e+00	5.000000e+00	5.000000e+00	
307	1.467324e-07	5.000000e+00	5.000000e+00	5.000000e+00	
308	1.472324e-07	5.000000e+00	5.000000e+00	5.000000e+00	
309	1.477324e-07	5.000000e+00	5.000000e+00	5.000000e+00	
310	1.482324e-07	5.000000e+00	5.000000e+00	5.000000e+00	
311	1.487324e-07	5.000000e+00	5.000000e+00	5.000000e+00	
312	1.492324e-07	5.000000e+00	5.000000e+00	5.000000e+00	
313	1.497324e-07	5.000000e+00	5.000000e+00	5.000000e+00	
314	1.500000e-07	5.000000e+00	5.000000e+00	5.000000e+00	

                                 *** NDINV * 4
                                 Transient Analysis  Sat Aug 27 16:31:59  2005
--------------------------------------------------------------------------------
Index   time            v(4)            v(5)            
--------------------------------------------------------------------------------
0	0.000000e+00	6.073044e-09	6.073044e-09	
1	5.000000e-12	6.074070e-09	6.075023e-09	
2	1.000000e-11	6.074841e-09	6.076979e-09	
3	2.000000e-11	6.075882e-09	6.080845e-09	
4	4.000000e-11	6.075067e-09	6.088305e-09	
5	8.000000e-11	6.062977e-09	6.102179e-09	
6	1.600000e-10	6.005455e-09	6.126056e-09	
7	1.800000e-10	5.984303e-09	6.131117e-09	
8	2.200000e-10	5.938848e-09	6.140691e-09	
9	3.000000e-10	5.832994e-09	6.156750e-09	
10	4.600000e-10	5.591204e-09	6.178361e-09	
11	6.354757e-10	5.318662e-09	6.189094e-09	
12	8.960570e-10	4.963465e-09	6.187994e-09	
13	1.196298e-09	4.662199e-09	6.171242e-09	
14	1.610915e-09	4.434390e-09	6.136917e-09	
15	2.000000e-09	4.381255e-09	6.103192e-09	
16	2.050000e-09	4.384395e-09	6.099145e-09	
17	2.150000e-09	4.393783e-09	6.091250e-09	
18	2.350000e-09	4.429256e-09	6.076749e-09	
19	2.750000e-09	4.550185e-09	6.053239e-09	
20	3.250000e-09	4.760318e-09	6.033865e-09	
21	3.750000e-09	4.999218e-09	6.024055e-09	
22	4.235270e-09	5.233483e-09	6.021391e-09	
23	4.735270e-09	5.462145e-09	6.023353e-09	
24	5.235270e-09	5.669884e-09	6.028150e-09	
25	5.735270e-09	5.853093e-09	6.034321e-09	
26	6.235270e-09	6.011012e-09	6.040868e-09	
27	6.735270e-09	6.144549e-09	6.047167e-09	
28	7.235270e-09	6.255530e-09	6.052870e-09	
29	7.735270e-09	6.346215e-09	6.057816e-09	
30	8.235270e-09	6.418996e-09	6.061968e-09	
31	8.735270e-09	6.476223e-09	6.065364e-09	
32	9.235270e-09	6.520103e-09	6.068078e-09	
33	9.735270e-09	6.552645e-09	6.070203e-09	
34	1.023527e-08	6.575646e-09	6.071833e-09	
35	1.073527e-08	6.590684e-09	6.073058e-09	
36	1.123527e-08	6.599134e-09	6.073957e-09	
37	1.173527e-08	6.602180e-09	6.074598e-09	
38	1.223527e-08	6.600833e-09	6.075039e-09	
39	1.273527e-08	6.595957e-09	6.075326e-09	
40	1.323527e-08	6.588278e-09	6.075497e-09	
41	1.373527e-08	6.578408e-09	6.075582e-09	
42	1.423527e-08	6.566861e-09	6.075603e-09	
43	1.473527e-08	6.554062e-09	6.075579e-09	
44	1.523527e-08	6.540364e-09	6.075523e-09	
45	1.573527e-08	6.526060e-09	6.075446e-09	
46	1.623527e-08	6.511387e-09	6.075356e-09	
47	1.673527e-08	6.496539e-09	6.075257e-09	
48	1.723527e-08	6.481672e-09	6.075155e-09	
49	1.773527e-08	6.466912e-09	6.075052e-09	
50	1.823527e-08	6.452358e-09	6.074950e-09	
51	1.873527e-08	6.438086e-09	6.074851e-09	
52	1.923527e-08	6.424154e-09	6.074755e-09	
53	1.973527e-08	6.410608e-09	6.074664e-09	
54	2.023527e-08	6.397477e-09	6.074577e-09	

Index   time            v(4)            v(5)            
--------------------------------------------------------------------------------
55	2.073527e-08	6.384784e-09	6.074494e-09	
56	2.123527e-08	6.372542e-09	6.074417e-09	
57	2.173527e-08	6.360756e-09	6.074343e-09	
58	2.223527e-08	6.349427e-09	6.074274e-09	
59	2.273527e-08	6.338553e-09	6.074209e-09	
60	2.323527e-08	6.328127e-09	6.074148e-09	
61	2.373527e-08	6.318142e-09	6.074091e-09	
62	2.423527e-08	6.308583e-09	6.074037e-09	
63	2.473527e-08	6.299432e-09	6.073986e-09	
64	2.523527e-08	6.290681e-09	6.073939e-09	
65	2.573527e-08	6.282316e-09	6.073894e-09	
66	2.623527e-08	6.274325e-09	6.073852e-09	
67	2.673527e-08	6.266691e-09	6.073812e-09	
68	2.723527e-08	6.259400e-09	6.073775e-09	
69	2.773527e-08	6.252436e-09	6.073740e-09	
70	2.823527e-08	6.245784e-09	6.073707e-09	
71	2.873527e-08	6.239327e-09	6.073676e-09	
72	2.923527e-08	6.233037e-09	6.073647e-09	
73	2.973527e-08	6.227055e-09	6.073619e-09	
74	3.023527e-08	6.221432e-09	6.073593e-09	
75	3.073527e-08	6.216144e-09	6.073568e-09	
76	3.123527e-08	6.211152e-09	6.073545e-09	
77	3.173527e-08	6.206412e-09	6.073522e-09	
78	3.223527e-08	6.201883e-09	6.073501e-09	
79	3.273527e-08	6.197522e-09	6.073482e-09	
80	3.323527e-08	6.193291e-09	6.073463e-09	
81	3.373527e-08	6.192183e-09	6.073445e-09	
82	3.423527e-08	6.199374e-09	6.073428e-09	
83	3.473527e-08	6.215351e-09	6.073412e-09	
84	3.523527e-08	6.236269e-09	6.073397e-09	
85	3.573527e-08	6.258586e-09	6.073382e-09	
86	3.623527e-08	6.280442e-09	6.073369e-09	
87	3.673527e-08	6.301694e-09	6.073356e-09	
88	3.723527e-08	6.323074e-09	6.073343e-09	
89	3.773527e-08	6.347110e-09	6.073331e-09	
90	3.823527e-08	6.384166e-09	6.073320e-09	
91	3.873527e-08	6.396054e-09	6.073309e-09	
92	3.923527e-08	1.916059e-09	6.073299e-09	
93	3.973527e-08	-1.251828e-08	6.073289e-09	
94	4.023527e-08	-3.246496e-08	6.073280e-09	
95	4.073527e-08	-5.198099e-08	6.073271e-09	
96	4.123527e-08	-6.218081e-08	6.073263e-09	
97	4.173527e-08	-5.438362e-08	6.073255e-09	
98	4.223527e-08	-3.691745e-08	6.073247e-09	
99	4.273527e-08	-2.048270e-08	6.073240e-09	
100	4.323527e-08	4.536342e-07	6.073234e-09	
101	4.373527e-08	2.389435e-06	6.073232e-09	
102	4.423527e-08	5.051698e-06	6.073227e-09	
103	4.473527e-08	7.210572e-06	6.073217e-09	
104	4.523527e-08	8.913870e-06	6.073207e-09	
105	4.573527e-08	1.021079e-05	6.073198e-09	
106	4.623527e-08	1.121000e-05	6.073191e-09	
107	4.673527e-08	1.204929e-05	6.073186e-09	
108	4.723527e-08	1.290470e-05	6.073182e-09	
109	4.773527e-08	1.400041e-05	6.073179e-09	
110	4.823527e-08	1.564110e-05	6.073177e-09	
111	4.873527e-08	-2.492327e-05	6.073041e-09	
112	4.923527e-08	-1.441149e-04	6.072791e-09	

Index   time            v(4)            v(5)            
--------------------------------------------------------------------------------
113	4.973527e-08	-3.316988e-04	6.072613e-09	
114	5.023527e-08	-5.796825e-04	6.072539e-09	
115	5.073527e-08	-8.831043e-04	6.072553e-09	
116	5.123527e-08	-1.240060e-03	6.072628e-09	
117	5.173527e-08	-1.651258e-03	6.072729e-09	
118	5.223527e-08	-2.120868e-03	6.072826e-09	
119	5.273527e-08	-2.658516e-03	6.072888e-09	
120	5.323527e-08	-3.272275e-03	6.072915e-09	
121	5.373527e-08	-2.657163e-03	6.077114e-09	
122	5.423527e-08	2.147889e-03	6.090509e-09	
123	5.473527e-08	1.446824e-02	6.112227e-09	
124	5.523527e-08	3.754811e-02	6.138358e-09	
125	5.573527e-08	7.452673e-02	6.165419e-09	
126	5.623527e-08	1.285604e-01	6.191718e-09	
127	5.673527e-08	2.028717e-01	6.217174e-09	
128	5.723527e-08	3.006303e-01	6.242438e-09	
129	5.773527e-08	4.255621e-01	6.270797e-09	
130	5.823527e-08	5.847010e-01	6.315279e-09	
131	5.873527e-08	7.940434e-01	5.929827e-09	
132	5.923527e-08	1.066846e+00	-1.991201e-10	
133	5.973527e-08	1.398994e+00	-1.615934e-08	
134	6.023527e-08	1.780890e+00	-3.644218e-08	
135	6.073527e-08	2.201954e+00	-5.545878e-08	
136	6.123527e-08	2.639562e+00	-6.301759e-08	
137	6.173527e-08	3.062822e+00	-5.202595e-08	
138	6.223527e-08	3.448962e+00	-3.369832e-08	
139	6.273527e-08	3.784754e+00	-1.750238e-08	
140	6.323527e-08	4.064780e+00	6.940108e-07	
141	6.373238e-08	4.289513e+00	2.885196e-06	
142	6.423238e-08	4.467189e+00	5.536599e-06	
143	6.473238e-08	4.603967e+00	7.620437e-06	
144	6.523238e-08	4.707524e+00	9.251302e-06	
145	6.573238e-08	4.785027e+00	1.047989e-05	
146	6.623238e-08	4.842447e+00	1.143097e-05	
147	6.673238e-08	4.884738e+00	1.224973e-05	
148	6.723238e-08	4.915689e+00	1.312274e-05	
149	6.773238e-08	4.938293e+00	1.428822e-05	
150	6.823238e-08	4.954733e+00	1.093300e-05	
151	6.873238e-08	4.966703e+00	-4.169129e-05	
152	6.923238e-08	4.975388e+00	-1.743849e-04	
153	6.973238e-08	4.981718e+00	-3.746080e-04	
154	7.023238e-08	4.986311e+00	-6.346954e-04	
155	7.073238e-08	4.989673e+00	-9.499326e-04	
156	7.123238e-08	4.992124e+00	-1.318746e-03	
157	7.173238e-08	4.993938e+00	-1.742337e-03	
158	7.223238e-08	4.995268e+00	-2.225687e-03	
159	7.273238e-08	4.996266e+00	-2.779776e-03	
160	7.323238e-08	4.997004e+00	-3.327745e-03	
161	7.373238e-08	4.997570e+00	-2.230166e-03	
162	7.423238e-08	4.997991e+00	3.715083e-03	
163	7.473238e-08	4.998323e+00	1.783986e-02	
164	7.523238e-08	4.998572e+00	4.339968e-02	
165	7.573238e-08	4.998776e+00	8.353844e-02	
166	7.623238e-08	4.998931e+00	1.414471e-01	
167	7.673238e-08	4.999063e+00	2.203863e-01	
168	7.723238e-08	4.999165e+00	3.235990e-01	
169	7.773238e-08	4.999256e+00	4.552552e-01	
170	7.823238e-08	4.999328e+00	6.238792e-01	

Index   time            v(4)            v(5)            
--------------------------------------------------------------------------------
171	7.873238e-08	4.999395e+00	8.474177e-01	
172	7.923238e-08	4.999449e+00	1.136642e+00	
173	7.973238e-08	4.999501e+00	1.485583e+00	
174	8.023238e-08	4.999543e+00	1.884351e+00	
175	8.073238e-08	4.999585e+00	2.320626e+00	
176	8.123238e-08	4.999619e+00	2.766788e+00	
177	8.173238e-08	4.999653e+00	3.189668e+00	
178	8.223238e-08	4.999681e+00	3.568872e+00	
179	8.273238e-08	4.999710e+00	3.892860e+00	
180	8.323238e-08	4.999733e+00	4.158449e+00	
181	8.373238e-08	4.999758e+00	4.369344e+00	
182	8.423238e-08	4.999777e+00	4.532646e+00	
183	8.473238e-08	4.999797e+00	4.656650e+00	
184	8.523238e-08	4.999813e+00	4.749416e+00	
185	8.573238e-08	4.999831e+00	4.818029e+00	
186	8.623238e-08	4.999844e+00	4.868346e+00	
187	8.673238e-08	4.999859e+00	4.905011e+00	
188	8.723238e-08	4.999870e+00	4.931600e+00	
189	8.773238e-08	4.999883e+00	4.950814e+00	
190	8.823238e-08	4.999892e+00	4.964664e+00	
191	8.873238e-08	4.999902e+00	4.974627e+00	
192	8.923238e-08	4.999910e+00	4.981785e+00	
193	8.973238e-08	4.999919e+00	4.986923e+00	
194	9.023238e-08	4.999925e+00	4.990609e+00	
195	9.073238e-08	4.999933e+00	4.993253e+00	
196	9.123238e-08	4.999938e+00	4.995149e+00	
197	9.173238e-08	4.999944e+00	4.996509e+00	
198	9.223238e-08	4.999948e+00	4.997485e+00	
199	9.273238e-08	4.999954e+00	4.998186e+00	
200	9.323238e-08	4.999957e+00	4.998689e+00	
201	9.373238e-08	4.999962e+00	4.999051e+00	
202	9.423238e-08	4.999964e+00	4.999312e+00	
203	9.473238e-08	4.999968e+00	4.999500e+00	
204	9.523238e-08	4.999970e+00	4.999636e+00	
205	9.573238e-08	4.999974e+00	4.999734e+00	
206	9.623238e-08	4.999975e+00	4.999805e+00	
207	9.673238e-08	4.999978e+00	4.999856e+00	
208	9.723238e-08	4.999980e+00	4.999894e+00	
209	9.773238e-08	4.999982e+00	4.999921e+00	
210	9.823238e-08	4.999983e+00	4.999942e+00	
211	9.873238e-08	4.999985e+00	4.999956e+00	
212	9.923238e-08	4.999986e+00	4.999967e+00	
213	9.973238e-08	4.999988e+00	4.999975e+00	
214	1.002324e-07	4.999988e+00	4.999981e+00	
215	1.007324e-07	4.999990e+00	4.999986e+00	
216	1.012324e-07	4.999990e+00	4.999989e+00	
217	1.017324e-07	4.999992e+00	4.999992e+00	
218	1.022324e-07	4.999992e+00	4.999993e+00	
219	1.027324e-07	4.999993e+00	4.999995e+00	
220	1.032324e-07	4.999993e+00	4.999996e+00	
221	1.037324e-07	4.999994e+00	4.999997e+00	
222	1.042324e-07	4.999994e+00	4.999998e+00	
223	1.047324e-07	4.999995e+00	4.999998e+00	
224	1.052324e-07	4.999995e+00	4.999998e+00	
225	1.057324e-07	4.999996e+00	4.999999e+00	
226	1.062324e-07	4.999996e+00	4.999999e+00	
227	1.067324e-07	4.999997e+00	4.999999e+00	
228	1.072324e-07	4.999997e+00	4.999999e+00	

Index   time            v(4)            v(5)            
--------------------------------------------------------------------------------
229	1.077324e-07	4.999997e+00	4.999999e+00	
230	1.082324e-07	4.999997e+00	5.000000e+00	
231	1.087324e-07	4.999998e+00	5.000000e+00	
232	1.092324e-07	4.999998e+00	5.000000e+00	
233	1.097324e-07	4.999998e+00	5.000000e+00	
234	1.102324e-07	4.999998e+00	5.000000e+00	
235	1.107324e-07	4.999999e+00	5.000000e+00	
236	1.112324e-07	4.999998e+00	5.000000e+00	
237	1.117324e-07	4.999999e+00	5.000000e+00	
238	1.122324e-07	4.999999e+00	5.000000e+00	
239	1.127324e-07	4.999999e+00	5.000000e+00	
240	1.132324e-07	4.999999e+00	5.000000e+00	
241	1.137324e-07	4.999999e+00	5.000000e+00	
242	1.142324e-07	4.999999e+00	5.000000e+00	
243	1.147324e-07	4.999999e+00	5.000000e+00	
244	1.152324e-07	4.999999e+00	5.000000e+00	
245	1.157324e-07	4.999999e+00	5.000000e+00	
246	1.162324e-07	4.999999e+00	5.000000e+00	
247	1.167324e-07	5.000000e+00	5.000000e+00	
248	1.172324e-07	4.999999e+00	5.000000e+00	
249	1.177324e-07	5.000000e+00	5.000000e+00	
250	1.182324e-07	5.000000e+00	5.000000e+00	
251	1.187324e-07	5.000000e+00	5.000000e+00	
252	1.192324e-07	5.000000e+00	5.000000e+00	
253	1.197324e-07	5.000000e+00	5.000000e+00	
254	1.202324e-07	5.000000e+00	5.000000e+00	
255	1.207324e-07	5.000000e+00	5.000000e+00	
256	1.212324e-07	5.000000e+00	5.000000e+00	
257	1.217324e-07	5.000000e+00	5.000000e+00	
258	1.222324e-07	5.000000e+00	5.000000e+00	
259	1.227324e-07	5.000000e+00	5.000000e+00	
260	1.232324e-07	5.000000e+00	5.000000e+00	
261	1.237324e-07	5.000000e+00	5.000000e+00	
262	1.242324e-07	5.000000e+00	5.000000e+00	
263	1.247324e-07	5.000000e+00	5.000000e+00	
264	1.252324e-07	5.000000e+00	5.000000e+00	
265	1.257324e-07	5.000000e+00	5.000000e+00	
266	1.262324e-07	5.000000e+00	5.000000e+00	
267	1.267324e-07	5.000000e+00	5.000000e+00	
268	1.272324e-07	5.000000e+00	5.000000e+00	
269	1.277324e-07	5.000000e+00	5.000000e+00	
270	1.282324e-07	5.000000e+00	5.000000e+00	
271	1.287324e-07	5.000000e+00	5.000000e+00	
272	1.292324e-07	5.000000e+00	5.000000e+00	
273	1.297324e-07	5.000000e+00	5.000000e+00	
274	1.302324e-07	5.000000e+00	5.000000e+00	
275	1.307324e-07	5.000000e+00	5.000000e+00	
276	1.312324e-07	5.000000e+00	5.000000e+00	
277	1.317324e-07	5.000000e+00	5.000000e+00	
278	1.322324e-07	5.000000e+00	5.000000e+00	
279	1.327324e-07	5.000000e+00	5.000000e+00	
280	1.332324e-07	5.000000e+00	5.000000e+00	
281	1.337324e-07	5.000000e+00	5.000000e+00	
282	1.342324e-07	5.000000e+00	5.000000e+00	
283	1.347324e-07	5.000000e+00	5.000000e+00	
284	1.352324e-07	5.000000e+00	5.000000e+00	
285	1.357324e-07	5.000000e+00	5.000000e+00	
286	1.362324e-07	5.000000e+00	5.000000e+00	

Index   time            v(4)            v(5)            
--------------------------------------------------------------------------------
287	1.367324e-07	5.000000e+00	5.000000e+00	
288	1.372324e-07	5.000000e+00	5.000000e+00	
289	1.377324e-07	5.000000e+00	5.000000e+00	
290	1.382324e-07	5.000000e+00	5.000000e+00	
291	1.387324e-07	5.000000e+00	5.000000e+00	
292	1.392324e-07	5.000000e+00	5.000000e+00	
293	1.397324e-07	5.000000e+00	5.000000e+00	
294	1.402324e-07	5.000000e+00	5.000000e+00	
295	1.407324e-07	5.000000e+00	5.000000e+00	
296	1.412324e-07	5.000000e+00	5.000000e+00	
297	1.417324e-07	5.000000e+00	5.000000e+00	
298	1.422324e-07	5.000000e+00	5.000000e+00	
299	1.427324e-07	5.000000e+00	5.000000e+00	
300	1.432324e-07	5.000000e+00	5.000000e+00	
301	1.437324e-07	5.000000e+00	5.000000e+00	
302	1.442324e-07	5.000000e+00	5.000000e+00	
303	1.447324e-07	5.000000e+00	5.000000e+00	
304	1.452324e-07	5.000000e+00	5.000000e+00	
305	1.457324e-07	5.000000e+00	5.000000e+00	
306	1.462324e-07	5.000000e+00	5.000000e+00	
307	1.467324e-07	5.000000e+00	5.000000e+00	
308	1.472324e-07	5.000000e+00	5.000000e+00	
309	1.477324e-07	5.000000e+00	5.000000e+00	
310	1.482324e-07	5.000000e+00	5.000000e+00	
311	1.487324e-07	5.000000e+00	5.000000e+00	
312	1.492324e-07	5.000000e+00	5.000000e+00	
313	1.497324e-07	5.000000e+00	5.000000e+00	
314	1.500000e-07	5.000000e+00	5.000000e+00	

                                 *** NDINV * 4
                                 Transient Analysis  Sat Aug 27 16:31:59  2005
--------------------------------------------------------------------------------
Index   time            v(11)           v(12)           v(13)           
--------------------------------------------------------------------------------
0	0.000000e+00	5.000000e+00	1.436434e-08	5.000000e+00	
1	5.000000e-12	5.000075e+00	4.021338e-07	5.000000e+00	
2	1.000000e-11	5.000151e+00	7.876029e-07	5.000000e+00	
3	2.000000e-11	5.000301e+00	1.554144e-06	5.000000e+00	
4	4.000000e-11	5.000600e+00	3.062415e-06	5.000000e+00	
5	8.000000e-11	5.001192e+00	5.990654e-06	5.000000e+00	
6	1.600000e-10	5.002354e+00	1.154810e-05	5.000000e+00	
7	1.800000e-10	5.002640e+00	1.287078e-05	5.000000e+00	
8	2.200000e-10	5.003209e+00	1.547886e-05	5.000000e+00	
9	3.000000e-10	5.004329e+00	2.049335e-05	5.000000e+00	
10	4.600000e-10	5.005385e+00	2.422345e-05	5.000000e+00	
11	6.354757e-10	4.997795e+00	-1.483841e-05	5.000000e+00	
12	8.960570e-10	4.951031e+00	-2.309236e-04	4.999997e+00	
13	1.196298e-09	4.853434e+00	-6.335196e-04	4.999992e+00	
14	1.610915e-09	4.690296e+00	-1.185522e-03	4.999987e+00	
15	2.000000e-09	4.525725e+00	-1.620535e-03	4.999985e+00	
16	2.050000e-09	4.503409e+00	-1.672707e-03	4.999984e+00	
17	2.150000e-09	4.458701e+00	-1.773878e-03	4.999984e+00	
18	2.350000e-09	4.369211e+00	-1.956847e-03	4.999984e+00	
19	2.750000e-09	4.191207e+00	-2.253421e-03	4.999984e+00	
20	3.250000e-09	3.972133e+00	-2.471205e-03	4.999986e+00	
21	3.750000e-09	3.754213e+00	7.201591e-03	5.000107e+00	
22	4.235270e-09	3.541345e+00	3.404688e-02	5.000405e+00	
23	4.735270e-09	3.322945e+00	7.485626e-02	5.000788e+00	
24	5.235270e-09	3.108515e+00	1.259311e-01	5.001193e+00	
25	5.735270e-09	2.899931e+00	1.871548e-01	5.001614e+00	
26	6.235270e-09	2.698778e+00	2.580704e-01	5.002044e+00	
27	6.735270e-09	2.506126e+00	3.387948e-01	5.002487e+00	
28	7.235270e-09	2.322720e+00	4.299599e-01	5.002952e+00	
29	7.735270e-09	2.148988e+00	5.330997e-01	5.003457e+00	
30	8.235270e-09	1.985130e+00	6.510900e-01	5.004035e+00	
31	8.735270e-09	1.831366e+00	7.882694e-01	5.002250e+00	
32	9.235270e-09	1.687553e+00	9.513371e-01	4.993314e+00	
33	9.735270e-09	1.553313e+00	1.145283e+00	4.974259e+00	
34	1.023527e-08	1.428288e+00	1.369010e+00	4.943742e+00	
35	1.073527e-08	1.312216e+00	1.618282e+00	4.900352e+00	
36	1.123527e-08	1.205314e+00	1.886938e+00	4.842628e+00	
37	1.173527e-08	1.107315e+00	2.167613e+00	4.769004e+00	
38	1.223527e-08	1.017558e+00	2.452720e+00	4.677693e+00	
39	1.273527e-08	9.354099e-01	2.735015e+00	4.566461e+00	
40	1.323527e-08	8.601669e-01	3.008279e+00	4.432252e+00	
41	1.373527e-08	7.912086e-01	3.267342e+00	4.270277e+00	
42	1.423527e-08	7.278925e-01	3.508622e+00	4.073417e+00	
43	1.473527e-08	6.695803e-01	3.728175e+00	3.839105e+00	
44	1.523527e-08	6.157243e-01	3.922636e+00	3.572315e+00	
45	1.573527e-08	5.659199e-01	4.091940e+00	3.279530e+00	
46	1.623527e-08	5.198575e-01	4.237773e+00	2.966540e+00	
47	1.673527e-08	4.772475e-01	4.361956e+00	2.641521e+00	
48	1.723527e-08	4.378463e-01	4.467058e+00	2.318434e+00	
49	1.773527e-08	4.014416e-01	4.555665e+00	2.011645e+00	
50	1.823527e-08	3.678301e-01	4.629775e+00	1.729933e+00	
51	1.873527e-08	3.368271e-01	4.691684e+00	1.476833e+00	
52	1.923527e-08	3.082641e-01	4.743394e+00	1.253311e+00	
53	1.973527e-08	2.819761e-01	4.786587e+00	1.058913e+00	
54	2.023527e-08	2.578077e-01	4.822622e+00	8.916622e-01	

Index   time            v(11)           v(12)           v(13)           
--------------------------------------------------------------------------------
55	2.073527e-08	2.356058e-01	4.852643e+00	7.489893e-01	
56	2.123527e-08	2.152269e-01	4.877629e+00	6.285023e-01	
57	2.173527e-08	1.965346e-01	4.898405e+00	5.274318e-01	
58	2.223527e-08	1.794043e-01	4.915663e+00	4.425382e-01	
59	2.273527e-08	1.637162e-01	4.929981e+00	3.711124e-01	
60	2.323527e-08	1.493579e-01	4.941857e+00	3.109320e-01	
61	2.373527e-08	1.362234e-01	4.951700e+00	2.601935e-01	
62	2.423527e-08	1.242150e-01	4.959859e+00	2.174243e-01	
63	2.473527e-08	1.132406e-01	4.966620e+00	1.814128e-01	
64	2.523527e-08	1.032159e-01	4.972226e+00	1.511401e-01	
65	2.573527e-08	9.406177e-02	4.976874e+00	1.257414e-01	
66	2.623527e-08	8.570590e-02	4.980730e+00	1.044714e-01	
67	2.673527e-08	7.808078e-02	4.983929e+00	8.669479e-02	
68	2.723527e-08	7.112475e-02	4.986586e+00	7.186399e-02	
69	2.773527e-08	6.478052e-02	4.988793e+00	5.951331e-02	
70	2.823527e-08	5.899584e-02	4.990628e+00	4.924276e-02	
71	2.873527e-08	5.372230e-02	4.992153e+00	4.071504e-02	
72	2.923527e-08	4.891583e-02	4.993423e+00	3.364193e-02	
73	2.973527e-08	4.453553e-02	4.994480e+00	2.778232e-02	
74	3.023527e-08	4.054442e-02	4.995362e+00	2.293158e-02	
75	3.073527e-08	3.690844e-02	4.996097e+00	1.892058e-02	
76	3.123527e-08	3.359656e-02	4.996711e+00	1.560534e-02	
77	3.173527e-08	3.058011e-02	4.997224e+00	1.286768e-02	
78	3.223527e-08	2.783316e-02	4.997653e+00	1.060729e-02	
79	3.273527e-08	2.533175e-02	4.998012e+00	8.742555e-03	
80	3.323527e-08	2.305425e-02	4.998313e+00	7.204043e-03	
81	3.373527e-08	2.098071e-02	4.998566e+00	5.935801e-03	
82	3.423527e-08	1.909308e-02	4.998779e+00	4.889957e-03	
83	3.473527e-08	1.737471e-02	4.998957e+00	4.028321e-03	
84	3.523527e-08	1.581056e-02	4.999108e+00	3.317978e-03	
85	3.573527e-08	1.438680e-02	4.999235e+00	2.733031e-03	
86	3.623527e-08	1.309098e-02	4.999343e+00	2.250876e-03	
87	3.673527e-08	1.191159e-02	4.999434e+00	1.854010e-03	
88	3.723527e-08	1.083828e-02	4.999512e+00	1.526892e-03	
89	3.773527e-08	9.861485e-03	4.999577e+00	1.257747e-03	
90	3.823527e-08	8.972603e-03	4.999634e+00	1.035876e-03	
91	3.873527e-08	8.163711e-03	4.999681e+00	8.534011e-04	
92	3.923527e-08	7.427668e-03	4.999723e+00	7.029363e-04	
93	3.973527e-08	6.757891e-03	4.999758e+00	5.792426e-04	
94	4.023527e-08	6.148456e-03	4.999788e+00	4.772013e-04	
95	4.073527e-08	5.593910e-03	4.999814e+00	3.933578e-04	
96	4.123527e-08	5.089350e-03	4.999836e+00	3.241444e-04	
97	4.173527e-08	4.630254e-03	4.999856e+00	2.673091e-04	
98	4.223527e-08	4.212552e-03	4.999873e+00	2.203475e-04	
99	4.273527e-08	3.832497e-03	4.999887e+00	1.818147e-04	
100	4.323527e-08	3.486719e-03	4.999900e+00	1.499356e-04	
101	4.373527e-08	3.172113e-03	4.999911e+00	1.238047e-04	
102	4.423527e-08	2.885887e-03	4.999921e+00	1.021495e-04	
103	4.473527e-08	2.625471e-03	4.999930e+00	8.442258e-05	
104	4.523527e-08	2.388551e-03	4.999937e+00	6.969912e-05	
105	4.573527e-08	2.172997e-03	4.999944e+00	5.766792e-05	
106	4.623527e-08	1.976895e-03	4.999950e+00	4.764584e-05	
107	4.673527e-08	1.798481e-03	4.999955e+00	3.947571e-05	
108	4.723527e-08	1.636169e-03	4.999960e+00	3.264382e-05	
109	4.773527e-08	1.488499e-03	4.999964e+00	2.709194e-05	
110	4.823527e-08	1.354157e-03	4.999967e+00	2.242621e-05	
111	4.873527e-08	1.231936e-03	4.999971e+00	1.865058e-05	
112	4.923527e-08	1.120747e-03	4.999974e+00	1.545692e-05	

Index   time            v(11)           v(12)           v(13)           
--------------------------------------------------------------------------------
113	4.973527e-08	1.019590e-03	4.999976e+00	1.288694e-05	
114	5.023527e-08	9.275644e-04	4.999978e+00	1.069476e-05	
115	5.073527e-08	8.438437e-04	4.999981e+00	8.943698e-06	
116	5.123527e-08	7.676794e-04	4.999982e+00	7.433738e-06	
117	5.173527e-08	6.983897e-04	4.999984e+00	6.239340e-06	
118	5.223527e-08	6.353537e-04	4.999986e+00	5.194899e-06	
119	5.273527e-08	5.780082e-04	4.999987e+00	4.379252e-06	
120	5.323527e-08	5.258380e-04	4.999988e+00	3.653120e-06	
121	5.373527e-08	4.783781e-04	4.999989e+00	3.095455e-06	
122	5.423527e-08	4.352011e-04	4.999990e+00	2.587527e-06	
123	5.473527e-08	3.959229e-04	4.999991e+00	2.205804e-06	
124	5.523527e-08	3.601888e-04	4.999992e+00	1.847922e-06	
125	5.573527e-08	3.276821e-04	4.999993e+00	1.586363e-06	
126	5.623527e-08	2.981080e-04	4.999993e+00	1.332053e-06	
127	5.673527e-08	2.712056e-04	4.999994e+00	1.152698e-06	
128	5.723527e-08	2.467297e-04	4.999995e+00	9.702059e-07	
129	5.773527e-08	2.244654e-04	4.999995e+00	8.471847e-07	
130	5.823527e-08	2.042089e-04	4.999996e+00	7.147658e-07	
131	5.873527e-08	1.857832e-04	4.999996e+00	6.304246e-07	
132	5.923527e-08	1.690186e-04	4.999996e+00	5.331456e-07	
133	5.973527e-08	1.537699e-04	4.999997e+00	4.754167e-07	
134	6.023527e-08	1.398953e-04	4.999997e+00	4.029861e-07	
135	6.073527e-08	1.272757e-04	4.999997e+00	3.636051e-07	
136	6.123527e-08	1.157929e-04	4.999997e+00	3.089023e-07	
137	6.173527e-08	1.053493e-04	4.999998e+00	2.821965e-07	
138	6.223527e-08	9.584594e-05	4.999998e+00	2.402689e-07	
139	6.273527e-08	8.720305e-05	4.999998e+00	2.223353e-07	
140	6.323527e-08	7.933793e-05	4.999998e+00	1.897184e-07	
141	6.373238e-08	7.222484e-05	4.999998e+00	1.779729e-07	
142	6.423238e-08	6.571193e-05	4.999999e+00	1.522142e-07	
143	6.473238e-08	5.978948e-05	4.999999e+00	1.445612e-07	
144	6.523238e-08	5.439923e-05	4.999999e+00	1.239437e-07	
145	6.573238e-08	4.949808e-05	4.999999e+00	1.192169e-07	
146	6.623238e-08	4.503694e-05	4.999999e+00	1.024974e-07	
147	6.673238e-08	4.098099e-05	4.999999e+00	9.979507e-08	
148	6.723238e-08	3.728879e-05	4.999999e+00	8.607359e-08	
149	6.773238e-08	3.393232e-05	4.999999e+00	8.476562e-08	
150	6.823238e-08	3.087650e-05	4.999999e+00	7.338280e-08	
151	6.873238e-08	2.809890e-05	4.999999e+00	7.302765e-08	
152	6.923238e-08	2.556974e-05	4.999999e+00	6.349463e-08	
153	6.973238e-08	2.327121e-05	4.999999e+00	6.378195e-08	
154	7.023238e-08	2.117793e-05	5.000000e+00	5.573143e-08	
155	7.073238e-08	1.927585e-05	5.000000e+00	5.644263e-08	
156	7.123238e-08	1.754331e-05	5.000000e+00	4.959491e-08	
157	7.173238e-08	1.596933e-05	5.000000e+00	5.057589e-08	
158	7.223238e-08	1.453533e-05	5.000000e+00	4.471500e-08	
159	7.273238e-08	1.323288e-05	5.000000e+00	4.585714e-08	
160	7.323238e-08	1.204597e-05	5.000000e+00	4.081410e-08	
161	7.373238e-08	1.096822e-05	5.000000e+00	4.204103e-08	
162	7.423238e-08	9.985800e-06	5.000000e+00	3.768184e-08	
163	7.473238e-08	9.094012e-06	5.000000e+00	3.894019e-08	
164	7.523238e-08	8.280828e-06	5.000000e+00	3.515731e-08	
165	7.573238e-08	7.542929e-06	5.000000e+00	3.641014e-08	
166	7.623238e-08	6.869814e-06	5.000000e+00	3.311626e-08	
167	7.673238e-08	6.259266e-06	5.000000e+00	3.433841e-08	
168	7.723238e-08	5.702076e-06	5.000000e+00	3.146191e-08	
169	7.773238e-08	5.196916e-06	5.000000e+00	3.263672e-08	
170	7.823238e-08	4.735672e-06	5.000000e+00	3.011831e-08	

Index   time            v(11)           v(12)           v(13)           
--------------------------------------------------------------------------------
171	7.873238e-08	4.317724e-06	5.000000e+00	3.123523e-08	
172	7.923238e-08	3.935889e-06	5.000000e+00	2.902540e-08	
173	7.973238e-08	3.590110e-06	5.000000e+00	3.007828e-08	
174	8.023238e-08	3.273999e-06	5.000000e+00	2.813539e-08	
175	8.073238e-08	2.987942e-06	5.000000e+00	2.912124e-08	
176	8.123238e-08	2.726229e-06	5.000000e+00	2.741006e-08	
177	8.173238e-08	2.489592e-06	5.000000e+00	2.832814e-08	
178	8.223238e-08	2.272903e-06	5.000000e+00	2.681868e-08	
179	8.273238e-08	2.077160e-06	5.000000e+00	2.766982e-08	
180	8.323238e-08	1.897738e-06	5.000000e+00	2.633643e-08	
181	8.373238e-08	1.735833e-06	5.000000e+00	2.712257e-08	
182	8.423238e-08	1.587257e-06	5.000000e+00	2.594322e-08	
183	8.473238e-08	1.453352e-06	5.000000e+00	2.666703e-08	
184	8.523238e-08	1.330309e-06	5.000000e+00	2.562274e-08	
185	8.573238e-08	1.219571e-06	5.000000e+00	2.628736e-08	
186	8.623238e-08	1.117664e-06	5.000000e+00	2.536169e-08	
187	8.673238e-08	1.026095e-06	5.000000e+00	2.597054e-08	
188	8.723238e-08	9.416830e-07	5.000000e+00	2.514924e-08	
189	8.773238e-08	8.659739e-07	5.000000e+00	2.570585e-08	
190	8.823238e-08	7.960450e-07	5.000000e+00	2.497652e-08	
191	8.873238e-08	7.334576e-07	5.000000e+00	2.548447e-08	
192	8.923238e-08	6.755184e-07	5.000000e+00	2.483630e-08	
193	8.973238e-08	6.237866e-07	5.000000e+00	2.529910e-08	
194	9.023238e-08	5.757737e-07	5.000000e+00	2.472265e-08	
195	9.073238e-08	5.330223e-07	5.000000e+00	2.514370e-08	
196	9.123238e-08	4.932277e-07	5.000000e+00	2.463070e-08	
197	9.173238e-08	4.579051e-07	5.000000e+00	2.501329e-08	
198	9.223238e-08	4.249151e-07	5.000000e+00	2.455647e-08	
199	9.273238e-08	3.957374e-07	5.000000e+00	2.490372e-08	
200	9.323238e-08	3.683818e-07	5.000000e+00	2.449671e-08	
201	9.373238e-08	3.442865e-07	5.000000e+00	2.481154e-08	
202	9.423238e-08	3.215970e-07	5.000000e+00	2.444874e-08	
203	9.473238e-08	3.017049e-07	5.000000e+00	2.473391e-08	
204	9.523238e-08	2.828797e-07	5.000000e+00	2.441037e-08	
205	9.573238e-08	2.664634e-07	5.000000e+00	2.466844e-08	
206	9.623238e-08	2.508390e-07	5.000000e+00	2.437979e-08	
207	9.673238e-08	2.372967e-07	5.000000e+00	2.461317e-08	
208	9.723238e-08	2.243237e-07	5.000000e+00	2.435556e-08	
209	9.773238e-08	2.131575e-07	5.000000e+00	2.456643e-08	
210	9.823238e-08	2.023811e-07	5.000000e+00	2.433645e-08	
211	9.873238e-08	1.931789e-07	5.000000e+00	2.452687e-08	
212	9.923238e-08	1.842228e-07	5.000000e+00	2.432149e-08	
213	9.973238e-08	1.766438e-07	5.000000e+00	2.449332e-08	
214	1.002324e-07	1.691962e-07	5.000000e+00	2.430988e-08	
215	1.007324e-07	1.629585e-07	5.000000e+00	2.446484e-08	
216	1.012324e-07	1.567613e-07	5.000000e+00	2.430095e-08	
217	1.017324e-07	1.516317e-07	5.000000e+00	2.444062e-08	
218	1.022324e-07	1.464713e-07	5.000000e+00	2.429418e-08	
219	1.027324e-07	1.422569e-07	5.000000e+00	2.442000e-08	
220	1.032324e-07	1.379563e-07	5.000000e+00	2.428912e-08	
221	1.037324e-07	1.344975e-07	5.000000e+00	2.440241e-08	
222	1.042324e-07	1.309102e-07	5.000000e+00	2.428544e-08	
223	1.047324e-07	1.280751e-07	5.000000e+00	2.438739e-08	
224	1.052324e-07	1.250797e-07	5.000000e+00	2.428283e-08	
225	1.057324e-07	1.227592e-07	5.000000e+00	2.437454e-08	
226	1.062324e-07	1.202552e-07	5.000000e+00	2.428107e-08	
227	1.067324e-07	1.183591e-07	5.000000e+00	2.436352e-08	
228	1.072324e-07	1.162632e-07	5.000000e+00	2.427997e-08	

Index   time            v(11)           v(12)           v(13)           
--------------------------------------------------------------------------------
229	1.077324e-07	1.147170e-07	5.000000e+00	2.435407e-08	
230	1.082324e-07	1.129601e-07	5.000000e+00	2.427938e-08	
231	1.087324e-07	1.117021e-07	5.000000e+00	2.434595e-08	
232	1.092324e-07	1.102272e-07	5.000000e+00	2.427918e-08	
233	1.097324e-07	1.092064e-07	5.000000e+00	2.433895e-08	
234	1.102324e-07	1.079660e-07	5.000000e+00	2.427927e-08	
235	1.107324e-07	1.071404e-07	5.000000e+00	2.433292e-08	
236	1.112324e-07	1.060953e-07	5.000000e+00	2.427957e-08	
237	1.117324e-07	1.054301e-07	5.000000e+00	2.432771e-08	
238	1.122324e-07	1.045476e-07	5.000000e+00	2.428003e-08	
239	1.127324e-07	1.040141e-07	5.000000e+00	2.432320e-08	
240	1.132324e-07	1.032673e-07	5.000000e+00	2.428060e-08	
241	1.137324e-07	1.028418e-07	5.000000e+00	2.431929e-08	
242	1.142324e-07	1.022082e-07	5.000000e+00	2.428123e-08	
243	1.147324e-07	1.018711e-07	5.000000e+00	2.431590e-08	
244	1.152324e-07	1.013321e-07	5.000000e+00	2.428190e-08	
245	1.157324e-07	1.010674e-07	5.000000e+00	2.431296e-08	
246	1.162324e-07	1.006075e-07	5.000000e+00	2.428259e-08	
247	1.167324e-07	1.004018e-07	5.000000e+00	2.431040e-08	
248	1.172324e-07	1.000082e-07	5.000000e+00	2.428328e-08	
249	1.177324e-07	9.985059e-08	5.000000e+00	2.430816e-08	
250	1.182324e-07	9.951262e-08	5.000000e+00	2.428396e-08	
251	1.187324e-07	9.939404e-08	5.000000e+00	2.430621e-08	
252	1.192324e-07	9.910283e-08	5.000000e+00	2.428462e-08	
253	1.197324e-07	9.901587e-08	5.000000e+00	2.430451e-08	
254	1.202324e-07	9.876403e-08	5.000000e+00	2.428524e-08	
255	1.207324e-07	9.870258e-08	5.000000e+00	2.430302e-08	
256	1.212324e-07	9.848395e-08	5.000000e+00	2.428584e-08	
257	1.217324e-07	9.844299e-08	5.000000e+00	2.430172e-08	
258	1.222324e-07	9.825246e-08	5.000000e+00	2.428640e-08	
259	1.227324e-07	9.822788e-08	5.000000e+00	2.430057e-08	
260	1.232324e-07	9.806116e-08	5.000000e+00	2.428692e-08	
261	1.237324e-07	9.804958e-08	5.000000e+00	2.429957e-08	
262	1.242324e-07	9.790310e-08	5.000000e+00	2.428741e-08	
263	1.247324e-07	9.790177e-08	5.000000e+00	2.429869e-08	
264	1.252324e-07	9.777254e-08	5.000000e+00	2.428786e-08	
265	1.257324e-07	9.777920e-08	5.000000e+00	2.429791e-08	
266	1.262324e-07	9.766472e-08	5.000000e+00	2.428828e-08	
267	1.267324e-07	9.767754e-08	5.000000e+00	2.429723e-08	
268	1.272324e-07	9.757571e-08	5.000000e+00	2.428866e-08	
269	1.277324e-07	9.759320e-08	5.000000e+00	2.429663e-08	
270	1.282324e-07	9.750226e-08	5.000000e+00	2.428902e-08	
271	1.287324e-07	9.752320e-08	5.000000e+00	2.429610e-08	
272	1.292324e-07	9.744166e-08	5.000000e+00	2.428934e-08	
273	1.297324e-07	9.746507e-08	5.000000e+00	2.429563e-08	
274	1.302324e-07	9.739169e-08	5.000000e+00	2.428963e-08	
275	1.307324e-07	9.741679e-08	5.000000e+00	2.429522e-08	
276	1.312324e-07	9.735051e-08	5.000000e+00	2.428990e-08	
277	1.317324e-07	9.737667e-08	5.000000e+00	2.429485e-08	
278	1.322324e-07	9.731659e-08	5.000000e+00	2.429014e-08	
279	1.327324e-07	9.734331e-08	5.000000e+00	2.429453e-08	
280	1.332324e-07	9.728867e-08	5.000000e+00	2.429036e-08	
281	1.337324e-07	9.731555e-08	5.000000e+00	2.429425e-08	
282	1.342324e-07	9.726571e-08	5.000000e+00	2.429056e-08	
283	1.347324e-07	9.729244e-08	5.000000e+00	2.429400e-08	
284	1.352324e-07	9.724684e-08	5.000000e+00	2.429074e-08	
285	1.357324e-07	9.727318e-08	5.000000e+00	2.429378e-08	
286	1.362324e-07	9.723136e-08	5.000000e+00	2.429090e-08	

Index   time            v(11)           v(12)           v(13)           
--------------------------------------------------------------------------------
287	1.367324e-07	9.725712e-08	5.000000e+00	2.429358e-08	
288	1.372324e-07	9.721866e-08	5.000000e+00	2.429104e-08	
289	1.377324e-07	9.724371e-08	5.000000e+00	2.429341e-08	
290	1.382324e-07	9.720826e-08	5.000000e+00	2.429117e-08	
291	1.387324e-07	9.723251e-08	5.000000e+00	2.429325e-08	
292	1.392324e-07	9.719977e-08	5.000000e+00	2.429129e-08	
293	1.397324e-07	9.722313e-08	5.000000e+00	2.429312e-08	
294	1.402324e-07	9.719283e-08	5.000000e+00	2.429140e-08	
295	1.407324e-07	9.721528e-08	5.000000e+00	2.429300e-08	
296	1.412324e-07	9.718719e-08	5.000000e+00	2.429149e-08	
297	1.417324e-07	9.720868e-08	5.000000e+00	2.429289e-08	
298	1.422324e-07	9.718261e-08	5.000000e+00	2.429158e-08	
299	1.427324e-07	9.720314e-08	5.000000e+00	2.429280e-08	
300	1.432324e-07	9.717890e-08	5.000000e+00	2.429165e-08	
301	1.437324e-07	9.719848e-08	5.000000e+00	2.429272e-08	
302	1.442324e-07	9.717591e-08	5.000000e+00	2.429172e-08	
303	1.447324e-07	9.719454e-08	5.000000e+00	2.429265e-08	
304	1.452324e-07	9.717350e-08	5.000000e+00	2.429178e-08	
305	1.457324e-07	9.719121e-08	5.000000e+00	2.429258e-08	
306	1.462324e-07	9.717159e-08	5.000000e+00	2.429183e-08	
307	1.467324e-07	9.718838e-08	5.000000e+00	2.429253e-08	
308	1.472324e-07	9.717006e-08	5.000000e+00	2.429188e-08	
309	1.477324e-07	9.718598e-08	5.000000e+00	2.429248e-08	
310	1.482324e-07	9.716886e-08	5.000000e+00	2.429192e-08	
311	1.487324e-07	9.718394e-08	5.000000e+00	2.429243e-08	
312	1.492324e-07	9.716793e-08	5.000000e+00	2.429196e-08	
313	1.497324e-07	9.718219e-08	5.000000e+00	2.429239e-08	
314	1.500000e-07	9.716765e-08	5.000000e+00	2.429200e-08	

                                 *** NDINV * 4
                                 Transient Analysis  Sat Aug 27 16:31:59  2005
--------------------------------------------------------------------------------
Index   time            v(41)           v(42)           v(43)           
--------------------------------------------------------------------------------
0	0.000000e+00	5.000000e+00	1.436238e-08	5.000000e+00	
1	5.000000e-12	5.000000e+00	2.562350e-08	5.000000e+00	
2	1.000000e-11	5.000000e+00	3.683353e-08	5.000000e+00	
3	2.000000e-11	5.000000e+00	5.915273e-08	5.000000e+00	
4	4.000000e-11	5.000000e+00	1.031959e-07	5.000000e+00	
5	8.000000e-11	5.000000e+00	1.889638e-07	5.000000e+00	
6	1.600000e-10	5.000000e+00	3.515952e-07	5.000000e+00	
7	1.800000e-10	5.000000e+00	3.900968e-07	5.000000e+00	
8	2.200000e-10	5.000000e+00	4.657306e-07	5.000000e+00	
9	3.000000e-10	5.000000e+00	6.090363e-07	5.000000e+00	
10	4.600000e-10	5.000000e+00	8.662008e-07	5.000000e+00	
11	6.354757e-10	5.000000e+00	1.107426e-06	5.000000e+00	
12	8.960570e-10	4.999999e+00	1.398952e-06	5.000000e+00	
13	1.196298e-09	4.999999e+00	1.652997e-06	5.000000e+00	
14	1.610915e-09	4.999999e+00	1.893683e-06	5.000000e+00	
15	2.000000e-09	4.999999e+00	2.031785e-06	5.000000e+00	
16	2.050000e-09	4.999999e+00	2.044075e-06	5.000000e+00	
17	2.150000e-09	4.999999e+00	2.066866e-06	5.000000e+00	
18	2.350000e-09	4.999999e+00	2.102547e-06	5.000000e+00	
19	2.750000e-09	4.999999e+00	2.141602e-06	5.000000e+00	
20	3.250000e-09	4.999999e+00	2.145167e-06	5.000000e+00	
21	3.750000e-09	4.999999e+00	2.115212e-06	5.000000e+00	
22	4.235270e-09	4.999999e+00	2.066388e-06	5.000000e+00	
23	4.735270e-09	4.999999e+00	2.004236e-06	5.000000e+00	
24	5.235270e-09	4.999999e+00	1.935644e-06	5.000000e+00	
25	5.735270e-09	4.999999e+00	1.864323e-06	5.000000e+00	
26	6.235270e-09	4.999999e+00	1.792651e-06	5.000000e+00	
27	6.735270e-09	4.999999e+00	1.722118e-06	5.000000e+00	
28	7.235270e-09	4.999999e+00	1.653628e-06	5.000000e+00	
29	7.735270e-09	4.999999e+00	1.587696e-06	5.000000e+00	
30	8.235270e-09	4.999999e+00	1.524587e-06	5.000000e+00	
31	8.735270e-09	4.999999e+00	1.464400e-06	5.000000e+00	
32	9.235270e-09	4.999999e+00	1.407133e-06	5.000000e+00	
33	9.735270e-09	4.999999e+00	1.352719e-06	5.000000e+00	
34	1.023527e-08	4.999999e+00	1.301054e-06	5.000000e+00	
35	1.073527e-08	4.999999e+00	1.252013e-06	5.000000e+00	
36	1.123527e-08	4.999999e+00	1.205462e-06	5.000000e+00	
37	1.173527e-08	4.999999e+00	1.161263e-06	5.000000e+00	
38	1.223527e-08	4.999999e+00	1.119283e-06	5.000000e+00	
39	1.273527e-08	4.999999e+00	1.079390e-06	5.000000e+00	
40	1.323527e-08	4.999999e+00	1.041460e-06	5.000000e+00	
41	1.373527e-08	4.999999e+00	1.005376e-06	5.000000e+00	
42	1.423527e-08	4.999999e+00	9.710274e-07	5.000000e+00	
43	1.473527e-08	4.999999e+00	9.383102e-07	5.000000e+00	
44	1.523527e-08	4.999999e+00	9.071280e-07	5.000000e+00	
45	1.573527e-08	4.999999e+00	8.773903e-07	5.000000e+00	
46	1.623527e-08	4.999999e+00	8.490130e-07	5.000000e+00	
47	1.673527e-08	4.999999e+00	8.219177e-07	5.000000e+00	
48	1.723527e-08	4.999999e+00	7.960313e-07	5.000000e+00	
49	1.773527e-08	4.999999e+00	7.712854e-07	5.000000e+00	
50	1.823527e-08	4.999999e+00	7.476166e-07	5.000000e+00	
51	1.873527e-08	4.999999e+00	7.249653e-07	5.000000e+00	
52	1.923527e-08	4.999999e+00	7.032763e-07	5.000000e+00	
53	1.973527e-08	4.999999e+00	6.824976e-07	5.000000e+00	
54	2.023527e-08	4.999999e+00	6.625807e-07	5.000000e+00	

Index   time            v(41)           v(42)           v(43)           
--------------------------------------------------------------------------------
55	2.073527e-08	4.999999e+00	6.434803e-07	5.000000e+00	
56	2.123527e-08	4.999999e+00	6.251540e-07	5.000000e+00	
57	2.173527e-08	4.999999e+00	6.075618e-07	5.000000e+00	
58	2.223527e-08	4.999999e+00	5.906666e-07	5.000000e+00	
59	2.273527e-08	4.999999e+00	5.744331e-07	5.000000e+00	
60	2.323527e-08	4.999999e+00	5.588286e-07	5.000000e+00	
61	2.373527e-08	4.999999e+00	5.438219e-07	5.000000e+00	
62	2.423527e-08	4.999999e+00	5.293841e-07	5.000000e+00	
63	2.473527e-08	4.999999e+00	5.154878e-07	5.000000e+00	
64	2.523527e-08	4.999999e+00	5.021071e-07	5.000000e+00	
65	2.573527e-08	4.999999e+00	4.892177e-07	5.000000e+00	
66	2.623527e-08	5.000000e+00	4.767968e-07	5.000000e+00	
67	2.673527e-08	5.000000e+00	4.648226e-07	5.000000e+00	
68	2.723527e-08	5.000000e+00	4.532748e-07	5.000000e+00	
69	2.773527e-08	5.000000e+00	4.421340e-07	5.000000e+00	
70	2.823527e-08	5.000000e+00	4.313820e-07	5.000000e+00	
71	2.873527e-08	5.000000e+00	4.210016e-07	5.000000e+00	
72	2.923527e-08	5.000000e+00	4.109764e-07	5.000000e+00	
73	2.973527e-08	5.000000e+00	4.012910e-07	5.000000e+00	
74	3.023527e-08	5.000000e+00	3.919308e-07	5.000000e+00	
75	3.073527e-08	5.000000e+00	3.828817e-07	5.000000e+00	
76	3.123527e-08	5.000000e+00	3.741308e-07	5.000000e+00	
77	3.173527e-08	5.000000e+00	3.656654e-07	5.000000e+00	
78	3.223527e-08	5.000000e+00	3.574738e-07	5.000000e+00	
79	3.273527e-08	5.000000e+00	3.495447e-07	5.000000e+00	
80	3.323527e-08	5.000000e+00	3.418674e-07	5.000000e+00	
81	3.373527e-08	5.000000e+00	3.344317e-07	5.000000e+00	
82	3.423527e-08	5.000000e+00	3.272279e-07	5.000000e+00	
83	3.473527e-08	5.000000e+00	3.202468e-07	5.000000e+00	
84	3.523527e-08	5.000000e+00	3.134797e-07	5.000000e+00	
85	3.573527e-08	5.000000e+00	3.069182e-07	5.000000e+00	
86	3.623527e-08	5.000000e+00	3.005543e-07	5.000000e+00	
87	3.673527e-08	5.000000e+00	2.943806e-07	5.000000e+00	
88	3.723527e-08	5.000000e+00	2.883897e-07	5.000000e+00	
89	3.773527e-08	5.000000e+00	2.825748e-07	5.000000e+00	
90	3.823527e-08	5.000000e+00	2.769292e-07	5.000000e+00	
91	3.873527e-08	5.000000e+00	2.714468e-07	5.000000e+00	
92	3.923527e-08	5.000000e+00	2.661214e-07	5.000000e+00	
93	3.973527e-08	5.000000e+00	2.609471e-07	5.000000e+00	
94	4.023527e-08	5.000000e+00	2.559187e-07	5.000000e+00	
95	4.073527e-08	5.000000e+00	2.510311e-07	5.000000e+00	
96	4.123527e-08	5.000000e+00	2.462794e-07	5.000000e+00	
97	4.173527e-08	5.000000e+00	2.416591e-07	5.000000e+00	
98	4.223527e-08	5.000000e+00	2.371650e-07	5.000000e+00	
99	4.273527e-08	5.000000e+00	2.327925e-07	5.000000e+00	
100	4.323527e-08	5.000000e+00	2.285489e-07	5.000000e+00	
101	4.373527e-08	5.000000e+00	2.244506e-07	5.000000e+00	
102	4.423527e-08	5.000000e+00	2.204626e-07	5.000000e+00	
103	4.473527e-08	5.000000e+00	2.165502e-07	5.000000e+00	
104	4.523527e-08	5.000000e+00	2.127227e-07	5.000000e+00	
105	4.573527e-08	5.000000e+00	2.089846e-07	5.000000e+00	
106	4.623527e-08	5.000000e+00	2.053389e-07	5.000000e+00	
107	4.673527e-08	5.000000e+00	2.017871e-07	5.000000e+00	
108	4.723527e-08	5.000000e+00	1.983302e-07	5.000000e+00	
109	4.773527e-08	5.000000e+00	1.949691e-07	5.000000e+00	
110	4.823527e-08	5.000000e+00	1.917050e-07	5.000000e+00	
111	4.873527e-08	5.000000e+00	1.874695e-07	5.000000e+00	
112	4.923527e-08	4.999999e+00	1.817704e-07	5.000000e+00	

Index   time            v(41)           v(42)           v(43)           
--------------------------------------------------------------------------------
113	4.973527e-08	4.999998e+00	1.754222e-07	5.000000e+00	
114	5.023527e-08	4.999997e+00	1.688391e-07	5.000000e+00	
115	5.073527e-08	4.999995e+00	1.622753e-07	5.000000e+00	
116	5.123527e-08	4.999994e+00	1.558807e-07	5.000000e+00	
117	5.173527e-08	4.999992e+00	1.496973e-07	5.000000e+00	
118	5.223527e-08	4.999990e+00	1.436628e-07	5.000000e+00	
119	5.273527e-08	4.999988e+00	1.375889e-07	5.000000e+00	
120	5.323527e-08	4.999985e+00	1.313805e-07	5.000000e+00	
121	5.373527e-08	4.999990e+00	1.581281e-07	5.000000e+00	
122	5.423527e-08	5.000018e+00	2.778349e-07	5.000000e+00	
123	5.473527e-08	5.000084e+00	5.314870e-07	5.000000e+00	
124	5.523527e-08	5.000201e+00	9.386964e-07	5.000000e+00	
125	5.573527e-08	5.000378e+00	1.509576e-06	5.000000e+00	
126	5.623527e-08	5.000625e+00	2.254716e-06	5.000000e+00	
127	5.673527e-08	5.000951e+00	3.189877e-06	5.000000e+00	
128	5.723527e-08	5.001363e+00	4.335638e-06	5.000000e+00	
129	5.773527e-08	5.001875e+00	5.735936e-06	5.000000e+00	
130	5.823527e-08	5.002515e+00	7.527478e-06	5.000000e+00	
131	5.873527e-08	5.002557e+00	6.287840e-06	5.000000e+00	
132	5.923527e-08	4.991720e+00	-4.199799e-05	4.999999e+00	
133	5.973527e-08	4.952418e+00	-1.978542e-04	4.999998e+00	
134	6.023527e-08	4.874456e+00	-4.702047e-04	4.999995e+00	
135	6.073527e-08	4.752034e+00	-8.478336e-04	4.999992e+00	
136	6.123527e-08	4.594488e+00	-1.259188e-03	4.999989e+00	
137	6.173527e-08	4.422671e+00	-1.606621e-03	4.999988e+00	
138	6.223527e-08	4.241183e+00	-1.893983e-03	4.999988e+00	
139	6.273527e-08	4.048069e+00	-2.152141e-03	4.999988e+00	
140	6.323527e-08	3.845027e+00	3.128803e-03	5.000055e+00	
141	6.373238e-08	3.635138e+00	2.347570e-02	5.000287e+00	
142	6.423238e-08	3.420332e+00	5.860337e-02	5.000634e+00	
143	6.473238e-08	3.206902e+00	1.040992e-01	5.001012e+00	
144	6.523238e-08	2.997576e+00	1.598930e-01	5.001415e+00	
145	6.573238e-08	2.794290e+00	2.254884e-01	5.001831e+00	
146	6.623238e-08	2.598535e+00	3.008256e-01	5.002261e+00	
147	6.673238e-08	2.411324e+00	3.862450e-01	5.002710e+00	
148	6.723238e-08	2.233347e+00	4.828159e-01	5.003190e+00	
149	6.773238e-08	2.064978e+00	5.926653e-01	5.003726e+00	
150	6.823238e-08	1.906488e+00	7.194470e-01	5.003867e+00	
151	6.873238e-08	1.757968e+00	8.684762e-01	4.999187e+00	
152	6.923238e-08	1.619089e+00	1.046528e+00	4.985146e+00	
153	6.973238e-08	1.489543e+00	1.255962e+00	4.960367e+00	
154	7.023238e-08	1.369102e+00	1.493058e+00	4.923432e+00	
155	7.073238e-08	1.257672e+00	1.752802e+00	4.872926e+00	
156	7.123238e-08	1.155305e+00	2.028432e+00	4.807330e+00	
157	7.173238e-08	1.061541e+00	2.312196e+00	4.724976e+00	
158	7.223238e-08	9.756765e-01	2.596602e+00	4.623885e+00	
159	7.273238e-08	8.970774e-01	2.874937e+00	4.501471e+00	
160	7.323238e-08	8.250815e-01	3.141435e+00	4.353865e+00	
161	7.373238e-08	7.590429e-01	3.391794e+00	4.175130e+00	
162	7.423238e-08	6.982908e-01	3.622713e+00	3.959390e+00	
163	7.473238e-08	6.422682e-01	3.829909e+00	3.707803e+00	
164	7.523238e-08	5.904753e-01	4.011410e+00	3.427083e+00	
165	7.573238e-08	5.425685e-01	4.168573e+00	3.123403e+00	
166	7.623238e-08	4.982549e-01	4.303314e+00	2.802591e+00	
167	7.673238e-08	4.572711e-01	4.417740e+00	2.476153e+00	
168	7.723238e-08	4.193845e-01	4.514252e+00	2.159822e+00	
169	7.773238e-08	3.843894e-01	4.595162e+00	1.865054e+00	
170	7.823238e-08	3.520942e-01	4.662788e+00	1.597796e+00	

Index   time            v(41)           v(42)           v(43)           
--------------------------------------------------------------------------------
171	7.873238e-08	3.223269e-01	4.719318e+00	1.360289e+00	
172	7.923238e-08	2.949163e-01	4.766526e+00	1.152358e+00	
173	7.973238e-08	2.697023e-01	4.805907e+00	9.721881e-01	
174	8.023238e-08	2.465283e-01	4.838720e+00	8.176079e-01	
175	8.073238e-08	2.252496e-01	4.866038e+00	6.862371e-01	
176	8.123238e-08	2.057246e-01	4.888765e+00	5.757461e-01	
177	8.173238e-08	1.878242e-01	4.907656e+00	4.832360e-01	
178	8.223238e-08	1.714235e-01	4.923336e+00	4.050886e-01	
179	8.273238e-08	1.564077e-01	4.936345e+00	3.390605e-01	
180	8.323238e-08	1.426676e-01	4.947131e+00	2.835923e-01	
181	8.373238e-08	1.301033e-01	4.956073e+00	2.369319e-01	
182	8.423238e-08	1.186185e-01	4.963483e+00	1.976818e-01	
183	8.473238e-08	1.081262e-01	4.969626e+00	1.646930e-01	
184	8.523238e-08	9.854330e-02	4.974718e+00	1.370097e-01	
185	8.573238e-08	8.979512e-02	4.978942e+00	1.138236e-01	
186	8.623238e-08	8.181077e-02	4.982446e+00	9.444649e-02	
187	8.673238e-08	7.452642e-02	4.985355e+00	7.828091e-02	
188	8.723238e-08	6.788188e-02	4.987771e+00	6.481909e-02	
189	8.773238e-08	6.182299e-02	4.989778e+00	5.362510e-02	
190	8.823238e-08	5.629885e-02	4.991447e+00	4.433126e-02	
191	8.873238e-08	5.126373e-02	4.992836e+00	3.662346e-02	
192	8.923238e-08	4.667478e-02	4.993992e+00	3.023912e-02	
193	8.973238e-08	4.249350e-02	4.994955e+00	2.495497e-02	
194	9.023238e-08	3.868394e-02	4.995758e+00	2.058599e-02	
195	9.073238e-08	3.521379e-02	4.996428e+00	1.697531e-02	
196	9.123238e-08	3.205297e-02	4.996987e+00	1.399403e-02	
197	9.173238e-08	2.917443e-02	4.997455e+00	1.153287e-02	
198	9.223238e-08	2.655306e-02	4.997846e+00	9.502804e-03	
199	9.273238e-08	2.416623e-02	4.998175e+00	7.828207e-03	
200	9.323238e-08	2.199305e-02	4.998450e+00	6.448012e-03	
201	9.373238e-08	2.001460e-02	4.998681e+00	5.310098e-03	
202	9.423238e-08	1.821353e-02	4.998875e+00	4.372808e-03	
203	9.473238e-08	1.657405e-02	4.999039e+00	3.600314e-03	
204	9.523238e-08	1.508175e-02	4.999177e+00	2.964336e-03	
205	9.573238e-08	1.372346e-02	4.999294e+00	2.440273e-03	
206	9.623238e-08	1.248725e-02	4.999392e+00	2.009011e-03	
207	9.673238e-08	1.136214e-02	4.999476e+00	1.653655e-03	
208	9.723238e-08	1.033826e-02	4.999547e+00	1.361344e-03	
209	9.773238e-08	9.406436e-03	4.999608e+00	1.120464e-03	
210	9.823238e-08	8.558531e-03	4.999659e+00	9.224013e-04	
211	9.873238e-08	7.786888e-03	4.999704e+00	7.591510e-04	
212	9.923238e-08	7.084798e-03	4.999741e+00	6.249824e-04	
213	9.973238e-08	6.445866e-03	4.999774e+00	5.143553e-04	
214	1.002324e-07	5.864573e-03	4.999802e+00	4.234857e-04	
215	1.007324e-07	5.335572e-03	4.999826e+00	3.485198e-04	
216	1.012324e-07	4.854332e-03	4.999847e+00	2.869848e-04	
217	1.017324e-07	4.416377e-03	4.999865e+00	2.361809e-04	
218	1.022324e-07	4.017996e-03	4.999880e+00	1.945160e-04	
219	1.027324e-07	3.655438e-03	4.999894e+00	1.600813e-04	
220	1.032324e-07	3.325670e-03	4.999906e+00	1.318734e-04	
221	1.037324e-07	3.025541e-03	4.999917e+00	1.085281e-04	
222	1.042324e-07	2.752581e-03	4.999926e+00	8.943323e-05	
223	1.047324e-07	2.504141e-03	4.999934e+00	7.360058e-05	
224	1.052324e-07	2.278213e-03	4.999941e+00	6.067650e-05	
225	1.057324e-07	2.072565e-03	4.999947e+00	4.993388e-05	
226	1.062324e-07	1.885573e-03	4.999953e+00	4.118805e-05	
227	1.067324e-07	1.715349e-03	4.999957e+00	3.389456e-05	
228	1.072324e-07	1.560587e-03	4.999962e+00	2.797770e-05	

Index   time            v(41)           v(42)           v(43)           
--------------------------------------------------------------------------------
229	1.077324e-07	1.419688e-03	4.999966e+00	2.302192e-05	
230	1.082324e-07	1.291605e-03	4.999969e+00	1.902039e-05	
231	1.087324e-07	1.174979e-03	4.999972e+00	1.564951e-05	
232	1.092324e-07	1.068980e-03	4.999975e+00	1.294464e-05	
233	1.097324e-07	9.724459e-04	4.999977e+00	1.064870e-05	
234	1.102324e-07	8.847245e-04	4.999980e+00	8.821602e-06	
235	1.107324e-07	8.048211e-04	4.999982e+00	7.255082e-06	
236	1.112324e-07	7.322278e-04	4.999983e+00	6.022118e-06	
237	1.117324e-07	6.660896e-04	4.999985e+00	4.950902e-06	
238	1.122324e-07	6.060171e-04	4.999986e+00	4.120011e-06	
239	1.127324e-07	5.512721e-04	4.999988e+00	3.385409e-06	
240	1.132324e-07	5.015623e-04	4.999989e+00	2.826546e-06	
241	1.137324e-07	4.562471e-04	4.999990e+00	2.320958e-06	
242	1.142324e-07	4.151136e-04	4.999991e+00	1.946068e-06	
243	1.147324e-07	3.776034e-04	4.999992e+00	1.596510e-06	
244	1.152324e-07	3.435677e-04	4.999992e+00	1.345971e-06	
245	1.157324e-07	3.125174e-04	4.999993e+00	1.102906e-06	
246	1.162324e-07	2.843556e-04	4.999994e+00	9.363514e-07	
247	1.167324e-07	2.586520e-04	4.999994e+00	7.661366e-07	
248	1.172324e-07	2.353514e-04	4.999995e+00	6.562366e-07	
249	1.177324e-07	2.140730e-04	4.999995e+00	5.360015e-07	
250	1.182324e-07	1.947952e-04	4.999996e+00	4.642580e-07	
251	1.187324e-07	1.771796e-04	4.999996e+00	3.784379e-07	
252	1.192324e-07	1.612309e-04	4.999996e+00	3.323331e-07	
253	1.197324e-07	1.466468e-04	4.999997e+00	2.703196e-07	
254	1.202324e-07	1.334530e-04	4.999997e+00	2.413860e-07	
255	1.207324e-07	1.213781e-04	4.999997e+00	1.959355e-07	
256	1.212324e-07	1.104640e-04	4.999998e+00	1.784493e-07	
257	1.217324e-07	1.004659e-04	4.999998e+00	1.446040e-07	
258	1.222324e-07	9.143827e-05	4.999998e+00	1.346994e-07	
259	1.227324e-07	8.315926e-05	4.999998e+00	1.090560e-07	
260	1.232324e-07	7.569258e-05	4.999998e+00	1.041255e-07	
261	1.237324e-07	6.883649e-05	4.999998e+00	8.433922e-08	
262	1.242324e-07	6.266144e-05	4.999999e+00	8.262760e-08	
263	1.247324e-07	5.698317e-05	4.999999e+00	6.707496e-08	
264	1.252324e-07	5.187685e-05	4.999999e+00	6.740387e-08	
265	1.257324e-07	4.717357e-05	4.999999e+00	5.495464e-08	
266	1.262324e-07	4.295150e-05	4.999999e+00	5.653612e-08	
267	1.267324e-07	3.905531e-05	4.999999e+00	4.639770e-08	
268	1.272324e-07	3.556486e-05	4.999999e+00	4.870778e-08	
269	1.277324e-07	3.233681e-05	4.999999e+00	4.031954e-08	
270	1.282324e-07	2.945163e-05	4.999999e+00	4.301262e-08	
271	1.287324e-07	2.677673e-05	4.999999e+00	3.597389e-08	
272	1.292324e-07	2.439229e-05	4.999999e+00	3.882470e-08	
273	1.297324e-07	2.217534e-05	4.999999e+00	3.284567e-08	
274	1.302324e-07	2.020514e-05	5.000000e+00	3.570989e-08	
275	1.307324e-07	1.836735e-05	5.000000e+00	3.057801e-08	
276	1.312324e-07	1.673980e-05	5.000000e+00	3.336569e-08	
277	1.317324e-07	1.521598e-05	5.000000e+00	2.892263e-08	
278	1.322324e-07	1.387184e-05	5.000000e+00	3.158009e-08	
279	1.327324e-07	1.260801e-05	5.000000e+00	2.770595e-08	
280	1.332324e-07	1.149827e-05	5.000000e+00	3.020359e-08	
281	1.337324e-07	1.044975e-05	5.000000e+00	2.680595e-08	
282	1.342324e-07	9.533852e-06	5.000000e+00	2.912997e-08	
283	1.347324e-07	8.663663e-06	5.000000e+00	2.613631e-08	
284	1.352324e-07	7.908050e-06	5.000000e+00	2.828316e-08	
285	1.357324e-07	7.185580e-06	5.000000e+00	2.563555e-08	
286	1.362324e-07	6.562488e-06	5.000000e+00	2.760817e-08	

Index   time            v(41)           v(42)           v(43)           
--------------------------------------------------------------------------------
287	1.367324e-07	5.962395e-06	5.000000e+00	2.525960e-08	
288	1.372324e-07	5.448852e-06	5.000000e+00	2.706486e-08	
289	1.377324e-07	4.950158e-06	5.000000e+00	2.497656e-08	
290	1.382324e-07	4.527159e-06	5.000000e+00	2.662364e-08	
291	1.387324e-07	4.112497e-06	5.000000e+00	2.476318e-08	
292	1.392324e-07	3.764319e-06	5.000000e+00	2.626242e-08	
293	1.397324e-07	3.419310e-06	5.000000e+00	2.460239e-08	
294	1.402324e-07	3.132949e-06	5.000000e+00	2.596457e-08	
295	1.407324e-07	2.845685e-06	5.000000e+00	2.448151e-08	
296	1.412324e-07	2.610383e-06	5.000000e+00	2.571738e-08	
297	1.417324e-07	2.371007e-06	5.000000e+00	2.439108e-08	
298	1.422324e-07	2.177866e-06	5.000000e+00	2.551106e-08	
299	1.427324e-07	1.978213e-06	5.000000e+00	2.432395e-08	
300	1.432324e-07	1.819874e-06	5.000000e+00	2.533797e-08	
301	1.437324e-07	1.653184e-06	5.000000e+00	2.427472e-08	
302	1.442324e-07	1.523562e-06	5.000000e+00	2.519211e-08	
303	1.447324e-07	1.384234e-06	5.000000e+00	2.423923e-08	
304	1.452324e-07	1.278297e-06	5.000000e+00	2.506868e-08	
305	1.457324e-07	1.161691e-06	5.000000e+00	2.421432e-08	
306	1.462324e-07	1.075281e-06	5.000000e+00	2.496386e-08	
307	1.467324e-07	9.775538e-07	5.000000e+00	2.419751e-08	
308	1.472324e-07	9.072309e-07	5.000000e+00	2.487455e-08	
309	1.477324e-07	8.251979e-07	5.000000e+00	2.418689e-08	
310	1.482324e-07	7.681210e-07	5.000000e+00	2.479821e-08	
311	1.487324e-07	6.991421e-07	5.000000e+00	2.418098e-08	
312	1.492324e-07	6.529633e-07	5.000000e+00	2.473279e-08	
313	1.497324e-07	5.948504e-07	5.000000e+00	2.417862e-08	
314	1.500000e-07	5.780658e-07	5.000000e+00	2.467159e-08	

CPU time since last call: 0.560 seconds.

Total CPU time: 0.560 seconds.

Current dynamic memory usage = 270336,
Dynamic memory limit = -491521.

