
No. of Data Rows : 1

No. of Data Rows : 1

Circuit: BRIDGE-T FILTER

Doing analysis at TEMP = 300.150000 and TNOM = 300.150000
	Node                                  Voltage
	----                                  -------
	----	-------
	V(3)                             1.200000e+01
	V(2)                             0.000000e+00
	V(1)                             1.200000e+01

	Source	Current
	------	-------

	v1#branch                        0.000000e+00

 Capacitor models (Fixed capacitor)
      model                     C

        cap                     0
         cj                     0
       cjsw                     0
       defw                 1e-05
       defl                     0
     narrow                     0
      short                     0
        tc1                     0
        tc2                     0
         di                     0
      thick                     0

 Resistor models (Simple linear resistor)
      model                     R

        rsh                     0
     narrow                     0
      short                     0
        tc1                     0
        tc2                     0
       defw                 1e-05
         kf                     0
         af                     0

 Capacitor: Fixed capacitor
     device                    c2                    c1
      model                     C                     C
capacitance                 1e-06                 1e-06
        cap                 1e-06                 1e-06
          c                 1e-06                 1e-06
      dtemp                     0                     0
          i                     0                     0
          p                     0                     0

 Resistor: Simple linear resistor
     device                    r4                    r3
      model                     R                     R
 resistance                  1000                  1000
         ac                  1000                  1000
      dtemp                     0                     0
      noisy                     1                     1
          i                     0                     0
          p                     0                     0

 Vsource: Independent voltage source
     device                    v1
         dc                    12
      acmag                     1
          i                     0
          p                    -0

                                BRIDGE-T FILTER
--------------------------------------------------------------------------------
Index   pole(1)                         pole(2)                         
--------------------------------------------------------------------------------
0	-2.618034e+03,	0.000000e+00	-3.819660e+02,	0.000000e+00	

                                BRIDGE-T FILTER
--------------------------------------------------------------------------------
Index   zero(1)                         zero(2)                         
--------------------------------------------------------------------------------
0	-1.000000e+03,	0.000000e+00	-1.000000e+03,	0.000000e+00	




