
No. of Data Rows : 1

Circuit: RC filter

Doing analysis at TEMP = 300.150000 and TNOM = 300.150000
                                   RC filter
--------------------------------------------------------------------------------
Index   all                             
--------------------------------------------------------------------------------
0	-1.000000e+08,	0.000000e+00	




