Warning: Source iin has no value, DC 0 assumed


No. of Data Rows : 1

Circuit: test pz

Doing analysis at TEMP = 300.150000 and TNOM = 300.150000
                                    test pz
--------------------------------------------------------------------------------
Index   pole(1)                         pole(2)                         
--------------------------------------------------------------------------------
0	-1.019524e+09,	0.000000e+00	-8.296965e+08,	0.000000e+00	

                                    test pz
--------------------------------------------------------------------------------
Index   pole(3)                         pole(4)                         
--------------------------------------------------------------------------------
0	-8.652054e+07,	0.000000e+00	-1.060594e+07,	0.000000e+00	




