Warning: Source iin has no value, DC 0 assumed


No. of Data Rows : 1

Circuit: test pz

Doing analysis at TEMP = 300.150000 and TNOM = 300.150000
                                    test pz
--------------------------------------------------------------------------------
Index   pole(1)                         pole(2)                         
--------------------------------------------------------------------------------
0	-2.000000e+01,	0.000000e+00	-2.000000e+01,	0.000000e+00	

                                    test pz
--------------------------------------------------------------------------------
Index   pole(3)                         
--------------------------------------------------------------------------------
0	-2.000000e+01,	0.000000e+00	




