
No. of Data Rows : 1

Circuit: test circuit #1 for pz analysis:high pass filter

Doing analysis at TEMP = 300.150000 and TNOM = 300.150000
                test circuit #1 for pz analysis:high pass filter
--------------------------------------------------------------------------------
Index   pole(1)                         zero(1)                         
--------------------------------------------------------------------------------
0	-5.000000e+08,	0.000000e+00	0.000000e+00,	0.000000e+00	




