 Reference value :  2.47000e+00
No. of Data Rows : 251

Circuit: * model = BSIMSOI (PD)

Doing analysis at TEMP = 300.150000 and TNOM = 300.150000
Warning: Pd = 0 is less than W.
Warning: Ps = 0 is less than W.
Warning: Pd = 0 is less than W.
Warning: Ps = 0 is less than W.
                             * model = BSIMSOI (PD)
--------------------------------------------------------------------------------
Index   v-sweep         v(in)           v(out)          
--------------------------------------------------------------------------------
0	0.000000e+00	0.000000e+00	2.499999e+00	
1	1.000000e-02	1.000000e-02	2.499998e+00	
2	2.000000e-02	2.000000e-02	2.499998e+00	
3	3.000000e-02	3.000000e-02	2.499997e+00	
4	4.000000e-02	4.000000e-02	2.499996e+00	
5	5.000000e-02	5.000000e-02	2.499994e+00	
6	6.000000e-02	6.000000e-02	2.499991e+00	
7	7.000000e-02	7.000000e-02	2.499986e+00	
8	8.000000e-02	8.000000e-02	2.499980e+00	
9	9.000000e-02	9.000000e-02	2.499970e+00	
10	1.000000e-01	1.000000e-01	2.499955e+00	
11	1.100000e-01	1.100000e-01	2.499934e+00	
12	1.200000e-01	1.200000e-01	2.499903e+00	
13	1.300000e-01	1.300000e-01	2.499859e+00	
14	1.400000e-01	1.400000e-01	2.499799e+00	
15	1.500000e-01	1.500000e-01	2.499717e+00	
16	1.600000e-01	1.600000e-01	2.499607e+00	
17	1.700000e-01	1.700000e-01	2.499461e+00	
18	1.800000e-01	1.800000e-01	2.499270e+00	
19	1.900000e-01	1.900000e-01	2.499024e+00	
20	2.000000e-01	2.000000e-01	2.498710e+00	
21	2.100000e-01	2.100000e-01	2.498318e+00	
22	2.200000e-01	2.200000e-01	2.497836e+00	
23	2.300000e-01	2.300000e-01	2.497253e+00	
24	2.400000e-01	2.400000e-01	2.496562e+00	
25	2.500000e-01	2.500000e-01	2.495756e+00	
26	2.600000e-01	2.600000e-01	2.494834e+00	
27	2.700000e-01	2.700000e-01	2.493792e+00	
28	2.800000e-01	2.800000e-01	2.492633e+00	
29	2.900000e-01	2.900000e-01	2.491358e+00	
30	3.000000e-01	3.000000e-01	2.489971e+00	
31	3.100000e-01	3.100000e-01	2.488475e+00	
32	3.200000e-01	3.200000e-01	2.486875e+00	
33	3.300000e-01	3.300000e-01	2.485175e+00	
34	3.400000e-01	3.400000e-01	2.483378e+00	
35	3.500000e-01	3.500000e-01	2.481488e+00	
36	3.600000e-01	3.600000e-01	2.479508e+00	
37	3.700000e-01	3.700000e-01	2.477441e+00	
38	3.800000e-01	3.800000e-01	2.475290e+00	
39	3.900000e-01	3.900000e-01	2.473056e+00	
40	4.000000e-01	4.000000e-01	2.470782e+00	
41	4.100000e-01	4.100000e-01	2.468387e+00	
42	4.200000e-01	4.200000e-01	2.465913e+00	
43	4.300000e-01	4.300000e-01	2.463361e+00	
44	4.400000e-01	4.400000e-01	2.460731e+00	
45	4.500000e-01	4.500000e-01	2.458023e+00	
46	4.600000e-01	4.600000e-01	2.455238e+00	
47	4.700000e-01	4.700000e-01	2.452373e+00	
48	4.800000e-01	4.800000e-01	2.449430e+00	
49	4.900000e-01	4.900000e-01	2.446406e+00	
50	5.000000e-01	5.000000e-01	2.443302e+00	
51	5.100000e-01	5.100000e-01	2.440115e+00	
52	5.200000e-01	5.200000e-01	2.436845e+00	
53	5.300000e-01	5.300000e-01	2.433490e+00	
54	5.400000e-01	5.400000e-01	2.430049e+00	

Index   v-sweep         v(in)           v(out)          
--------------------------------------------------------------------------------
55	5.500000e-01	5.500000e-01	2.426520e+00	
56	5.600000e-01	5.600000e-01	2.422900e+00	
57	5.700000e-01	5.700000e-01	2.419189e+00	
58	5.800000e-01	5.800000e-01	2.415383e+00	
59	5.900000e-01	5.900000e-01	2.411481e+00	
60	6.000000e-01	6.000000e-01	2.407479e+00	
61	6.100000e-01	6.100000e-01	2.403376e+00	
62	6.200000e-01	6.200000e-01	2.399169e+00	
63	6.300000e-01	6.300000e-01	2.394854e+00	
64	6.400000e-01	6.400000e-01	2.390428e+00	
65	6.500000e-01	6.500000e-01	2.385889e+00	
66	6.600000e-01	6.600000e-01	2.381231e+00	
67	6.700000e-01	6.700000e-01	2.376453e+00	
68	6.800000e-01	6.800000e-01	2.371548e+00	
69	6.900000e-01	6.900000e-01	2.366514e+00	
70	7.000000e-01	7.000000e-01	2.361346e+00	
71	7.100000e-01	7.100000e-01	2.356038e+00	
72	7.200000e-01	7.200000e-01	2.350585e+00	
73	7.300000e-01	7.300000e-01	2.344982e+00	
74	7.400000e-01	7.400000e-01	2.339222e+00	
75	7.500000e-01	7.500000e-01	2.333300e+00	
76	7.600000e-01	7.600000e-01	2.327208e+00	
77	7.700000e-01	7.700000e-01	2.320938e+00	
78	7.800000e-01	7.800000e-01	2.314483e+00	
79	7.900000e-01	7.900000e-01	2.307833e+00	
80	8.000000e-01	8.000000e-01	2.300980e+00	
81	8.100000e-01	8.100000e-01	2.293913e+00	
82	8.200000e-01	8.200000e-01	2.286621e+00	
83	8.300000e-01	8.300000e-01	2.279092e+00	
84	8.400000e-01	8.400000e-01	2.271312e+00	
85	8.500000e-01	8.500000e-01	2.263267e+00	
86	8.600000e-01	8.600000e-01	2.254941e+00	
87	8.700000e-01	8.700000e-01	2.246317e+00	
88	8.800000e-01	8.800000e-01	2.237375e+00	
89	8.900000e-01	8.900000e-01	2.228093e+00	
90	9.000000e-01	9.000000e-01	2.218448e+00	
91	9.100000e-01	9.100000e-01	2.208412e+00	
92	9.200000e-01	9.200000e-01	2.197956e+00	
93	9.300000e-01	9.300000e-01	2.187045e+00	
94	9.400000e-01	9.400000e-01	2.175640e+00	
95	9.500000e-01	9.500000e-01	2.163697e+00	
96	9.600000e-01	9.600000e-01	2.151164e+00	
97	9.700000e-01	9.700000e-01	2.137982e+00	
98	9.800000e-01	9.800000e-01	2.124081e+00	
99	9.900000e-01	9.900000e-01	2.109377e+00	
100	1.000000e+00	1.000000e+00	2.093773e+00	
101	1.010000e+00	1.010000e+00	2.077147e+00	
102	1.020000e+00	1.020000e+00	2.059352e+00	
103	1.030000e+00	1.030000e+00	2.040203e+00	
104	1.040000e+00	1.040000e+00	2.019463e+00	
105	1.050000e+00	1.050000e+00	1.996826e+00	
106	1.060000e+00	1.060000e+00	1.971884e+00	
107	1.070000e+00	1.070000e+00	1.944084e+00	
108	1.080000e+00	1.080000e+00	1.910492e+00	
109	1.090000e+00	1.090000e+00	1.873867e+00	
110	1.100000e+00	1.100000e+00	1.831532e+00	
111	1.110000e+00	1.110000e+00	1.783130e+00	
112	1.120000e+00	1.120000e+00	1.729458e+00	

Index   v-sweep         v(in)           v(out)          
--------------------------------------------------------------------------------
113	1.130000e+00	1.130000e+00	1.672095e+00	
114	1.140000e+00	1.140000e+00	1.612626e+00	
115	1.150000e+00	1.150000e+00	1.552549e+00	
116	1.160000e+00	1.160000e+00	1.491943e+00	
117	1.170000e+00	1.170000e+00	1.432297e+00	
118	1.180000e+00	1.180000e+00	1.373873e+00	
119	1.190000e+00	1.190000e+00	1.317154e+00	
120	1.200000e+00	1.200000e+00	1.262585e+00	
121	1.210000e+00	1.210000e+00	1.210554e+00	
122	1.220000e+00	1.220000e+00	1.161308e+00	
123	1.230000e+00	1.230000e+00	1.114785e+00	
124	1.240000e+00	1.240000e+00	1.070345e+00	
125	1.250000e+00	1.250000e+00	1.026307e+00	
126	1.260000e+00	1.260000e+00	9.804299e-01	
127	1.270000e+00	1.270000e+00	9.294541e-01	
128	1.280000e+00	1.280000e+00	8.694885e-01	
129	1.290000e+00	1.290000e+00	8.002735e-01	
130	1.300000e+00	1.300000e+00	7.294759e-01	
131	1.310000e+00	1.310000e+00	6.656970e-01	
132	1.320000e+00	1.320000e+00	6.123182e-01	
133	1.330000e+00	1.330000e+00	5.686657e-01	
134	1.340000e+00	1.340000e+00	5.325773e-01	
135	1.350000e+00	1.350000e+00	5.019922e-01	
136	1.360000e+00	1.360000e+00	4.754187e-01	
137	1.370000e+00	1.370000e+00	4.518595e-01	
138	1.380000e+00	1.380000e+00	4.306467e-01	
139	1.390000e+00	1.390000e+00	4.113193e-01	
140	1.400000e+00	1.400000e+00	3.935474e-01	
141	1.410000e+00	1.410000e+00	3.770864e-01	
142	1.420000e+00	1.420000e+00	3.617492e-01	
143	1.430000e+00	1.430000e+00	3.473890e-01	
144	1.440000e+00	1.440000e+00	3.338879e-01	
145	1.450000e+00	1.450000e+00	3.211498e-01	
146	1.460000e+00	1.460000e+00	3.090946e-01	
147	1.470000e+00	1.470000e+00	2.973578e-01	
148	1.480000e+00	1.480000e+00	2.865129e-01	
149	1.490000e+00	1.490000e+00	2.761639e-01	
150	1.500000e+00	1.500000e+00	2.662793e-01	
151	1.510000e+00	1.510000e+00	2.568222e-01	
152	1.520000e+00	1.520000e+00	2.477604e-01	
153	1.530000e+00	1.530000e+00	2.390652e-01	
154	1.540000e+00	1.540000e+00	2.307112e-01	
155	1.550000e+00	1.550000e+00	2.226758e-01	
156	1.560000e+00	1.560000e+00	2.149383e-01	
157	1.570000e+00	1.570000e+00	2.074804e-01	
158	1.580000e+00	1.580000e+00	2.002854e-01	
159	1.590000e+00	1.590000e+00	1.933382e-01	
160	1.600000e+00	1.600000e+00	1.866248e-01	
161	1.610000e+00	1.610000e+00	1.801328e-01	
162	1.620000e+00	1.620000e+00	1.738505e-01	
163	1.630000e+00	1.630000e+00	1.677672e-01	
164	1.640000e+00	1.640000e+00	1.618733e-01	
165	1.650000e+00	1.650000e+00	1.561596e-01	
166	1.660000e+00	1.660000e+00	1.506179e-01	
167	1.670000e+00	1.670000e+00	1.452404e-01	
168	1.680000e+00	1.680000e+00	1.400200e-01	
169	1.690000e+00	1.690000e+00	1.349498e-01	
170	1.700000e+00	1.700000e+00	1.300239e-01	

Index   v-sweep         v(in)           v(out)          
--------------------------------------------------------------------------------
171	1.710000e+00	1.710000e+00	1.252363e-01	
172	1.720000e+00	1.720000e+00	1.205816e-01	
173	1.730000e+00	1.730000e+00	1.160548e-01	
174	1.740000e+00	1.740000e+00	1.116512e-01	
175	1.750000e+00	1.750000e+00	1.073663e-01	
176	1.760000e+00	1.760000e+00	1.031960e-01	
177	1.770000e+00	1.770000e+00	9.913640e-02	
178	1.780000e+00	1.780000e+00	9.518378e-02	
179	1.790000e+00	1.790000e+00	9.133472e-02	
180	1.800000e+00	1.800000e+00	8.758600e-02	
181	1.810000e+00	1.810000e+00	8.393457e-02	
182	1.820000e+00	1.820000e+00	8.037755e-02	
183	1.830000e+00	1.830000e+00	7.691227e-02	
184	1.840000e+00	1.840000e+00	7.353618e-02	
185	1.850000e+00	1.850000e+00	7.024692e-02	
186	1.860000e+00	1.860000e+00	6.704225e-02	
187	1.870000e+00	1.870000e+00	6.392009e-02	
188	1.880000e+00	1.880000e+00	6.087849e-02	
189	1.890000e+00	1.890000e+00	5.791562e-02	
190	1.900000e+00	1.900000e+00	5.502981e-02	
191	1.910000e+00	1.910000e+00	5.221950e-02	
192	1.920000e+00	1.920000e+00	4.948326e-02	
193	1.930000e+00	1.930000e+00	4.681981e-02	
194	1.940000e+00	1.940000e+00	4.422799e-02	
195	1.950000e+00	1.950000e+00	4.170678e-02	
196	1.960000e+00	1.960000e+00	3.925531e-02	
197	1.970000e+00	1.970000e+00	3.687285e-02	
198	1.980000e+00	1.980000e+00	3.455885e-02	
199	1.990000e+00	1.990000e+00	3.234669e-02	
200	2.000000e+00	2.000000e+00	3.016853e-02	
201	2.010000e+00	2.010000e+00	2.805831e-02	
202	2.020000e+00	2.020000e+00	2.601623e-02	
203	2.030000e+00	2.030000e+00	2.404273e-02	
204	2.040000e+00	2.040000e+00	2.213847e-02	
205	2.050000e+00	2.050000e+00	2.030439e-02	
206	2.060000e+00	2.060000e+00	1.854170e-02	
207	2.070000e+00	2.070000e+00	1.685186e-02	
208	2.080000e+00	2.080000e+00	1.523664e-02	
209	2.090000e+00	2.090000e+00	1.369808e-02	
210	2.100000e+00	2.100000e+00	1.223845e-02	
211	2.110000e+00	2.110000e+00	1.086024e-02	
212	2.120000e+00	2.120000e+00	9.566075e-03	
213	2.130000e+00	2.130000e+00	8.358601e-03	
214	2.140000e+00	2.140000e+00	7.240352e-03	
215	2.150000e+00	2.150000e+00	6.213554e-03	
216	2.160000e+00	2.160000e+00	5.279894e-03	
217	2.170000e+00	2.170000e+00	4.440255e-03	
218	2.180000e+00	2.180000e+00	3.694430e-03	
219	2.190000e+00	2.190000e+00	3.040858e-03	
220	2.200000e+00	2.200000e+00	2.476428e-03	
221	2.210000e+00	2.210000e+00	1.996392e-03	
222	2.220000e+00	2.220000e+00	1.594448e-03	
223	2.230000e+00	2.230000e+00	1.262998e-03	
224	2.240000e+00	2.240000e+00	9.935713e-04	
225	2.250000e+00	2.250000e+00	7.773429e-04	
226	2.260000e+00	2.260000e+00	6.056638e-04	
227	2.270000e+00	2.270000e+00	4.705029e-04	
228	2.280000e+00	2.280000e+00	3.647470e-04	

Index   v-sweep         v(in)           v(out)          
--------------------------------------------------------------------------------
229	2.290000e+00	2.290000e+00	2.823411e-04	
230	2.300000e+00	2.300000e+00	2.182925e-04	
231	2.310000e+00	2.310000e+00	1.685827e-04	
232	2.320000e+00	2.320000e+00	1.300320e-04	
233	2.330000e+00	2.330000e+00	1.001521e-04	
234	2.340000e+00	2.340000e+00	7.700750e-05	
235	2.350000e+00	2.350000e+00	5.909614e-05	
236	2.360000e+00	2.360000e+00	4.525247e-05	
237	2.370000e+00	2.370000e+00	3.457078e-05	
238	2.380000e+00	2.380000e+00	2.634596e-05	
239	2.390000e+00	2.390000e+00	2.002816e-05	
240	2.400000e+00	2.400000e+00	1.518814e-05	
241	2.410000e+00	2.410000e+00	1.149079e-05	
242	2.420000e+00	2.420000e+00	8.674635e-06	
243	2.430000e+00	2.430000e+00	6.536015e-06	
244	2.440000e+00	2.440000e+00	4.916669e-06	
245	2.450000e+00	2.450000e+00	3.693987e-06	
246	2.460000e+00	2.460000e+00	2.773298e-06	
247	2.470000e+00	2.470000e+00	2.081773e-06	
248	2.480000e+00	2.480000e+00	1.563599e-06	
249	2.490000e+00	2.490000e+00	1.176165e-06	
250	2.500000e+00	2.500000e+00	8.870574e-07	




