
Circuit: * 51 stage Ring-Osc.


Initial Transient Solution
--------------------------

Node                                   Voltage
----                                   -------
in                                           2
out                               -1.97049e-07
dd                                           0
ss                                           0
sub                                          0
inv1:inv1:1                        6.71738e-13
inv1:inv1:2                        7.31315e-18
inv1:inv1:3                        2.78766e-18
inv1:inv1:4                        2.78766e-18
inv1:1                             2.78766e-18
inv1:inv2:1                        2.78766e-18
inv1:inv2:2                        2.78766e-18
inv1:inv2:3                        2.78766e-18
inv1:inv2:4                        2.78766e-18
inv1:2                             2.78766e-18
inv1:inv3:1                        2.78766e-18
inv1:inv3:2                        2.78766e-18
inv1:inv3:3                        2.78766e-18
inv1:inv3:4                        2.78766e-18
inv1:3                             2.78766e-18
inv1:inv4:1                        2.78766e-18
inv1:inv4:2                        2.78766e-18
inv1:inv4:3                        2.78766e-18
inv1:inv4:4                        2.78766e-18
inv1:4                             2.78766e-18
inv1:inv5:1                        2.78766e-18
inv1:inv5:2                        2.78766e-18
inv1:inv5:3                        2.78766e-18
inv1:inv5:4                        2.78766e-18
out25                              2.78766e-18
inv2:inv1:1                        2.78766e-18
inv2:inv1:2                        2.78766e-18
inv2:inv1:3                        2.78766e-18
inv2:inv1:4                        2.78766e-18
inv2:1                             2.78766e-18
inv2:inv2:1                        2.78766e-18
inv2:inv2:2                        2.78766e-18
inv2:inv2:3                        2.78766e-18
inv2:inv2:4                        2.78766e-18
inv2:2                             2.78766e-18
inv2:inv3:1                        2.78766e-18
inv2:inv3:2                        2.78766e-18
inv2:inv3:3                        2.78766e-18
inv2:inv3:4                        2.78766e-18
inv2:3                             2.78766e-18
inv2:inv4:1                        2.78766e-18
inv2:inv4:2                        2.78766e-18
inv2:inv4:3                        2.78766e-18
inv2:inv4:4                        2.78766e-18
inv2:4                             2.78766e-18
inv2:inv5:1                        2.78766e-18
inv2:inv5:2                        2.78766e-18
inv2:inv5:3                        2.78766e-18
inv2:inv5:4                        2.78575e-18
out50                             -1.94114e-14
buf                               -1.94114e-14
ve#branch                                    0
vss#branch                         2.08189e-15
vdd#branch                        -2.08189e-15
vin#branch                              -4e-15

                              * 51 stage Ring-Osc.
                              DC transfer characteristic  Wed Nov 29 22:03:25  2000
--------------------------------------------------------------------------------
Index   v-sweep         v(out)          
--------------------------------------------------------------------------------
0	0.000000e+00	-1.970493e-07	
1	1.000000e-02	5.196605e-03	
2	2.000000e-02	1.038020e-02	
3	3.000000e-02	1.555339e-02	
4	4.000000e-02	1.152622e-02	
5	5.000000e-02	5.863393e-03	
6	6.000000e-02	3.567133e-03	
7	7.000000e-02	2.306091e-03	
8	8.000000e-02	1.540750e-03	
9	9.000000e-02	1.051226e-03	
10	1.000000e-01	7.278651e-04	
11	1.100000e-01	5.096147e-04	
12	1.200000e-01	3.600337e-04	
13	1.300000e-01	2.563316e-04	
14	1.400000e-01	1.837814e-04	
15	1.500000e-01	1.326412e-04	
16	1.600000e-01	9.635492e-05	
17	1.700000e-01	7.045313e-05	
18	1.800000e-01	5.185813e-05	
19	1.900000e-01	3.843373e-05	
20	2.000000e-01	2.868738e-05	
21	2.100000e-01	2.157048e-05	
22	2.200000e-01	1.634257e-05	
23	2.300000e-01	1.247846e-05	
24	2.400000e-01	9.603954e-06	
25	2.500000e-01	7.451346e-06	
26	2.600000e-01	5.828244e-06	
27	2.700000e-01	4.595787e-06	
28	2.800000e-01	3.653273e-06	
29	2.900000e-01	2.927321e-06	
30	3.000000e-01	2.364185e-06	
31	3.100000e-01	1.924268e-06	
32	3.200000e-01	1.578242e-06	
33	3.300000e-01	1.304255e-06	
34	3.400000e-01	1.085901e-06	
35	3.500000e-01	9.108018e-07	
36	3.600000e-01	7.695481e-07	
37	3.700000e-01	6.549389e-07	
38	3.800000e-01	5.614294e-07	
39	3.900000e-01	4.847186e-07	
40	4.000000e-01	4.214542e-07	
41	4.100000e-01	3.690078e-07	
42	4.200000e-01	3.253027e-07	
43	4.300000e-01	2.886984e-07	
44	4.400000e-01	2.578836e-07	
45	4.500000e-01	2.318141e-07	
46	4.600000e-01	2.096481e-07	
47	4.700000e-01	1.907102e-07	
48	4.800000e-01	1.744511e-07	
49	4.900000e-01	1.604271e-07	
50	5.000000e-01	1.482747e-07	
51	5.100000e-01	1.376983e-07	
52	5.200000e-01	1.284532e-07	
53	5.300000e-01	1.203397e-07	
54	5.400000e-01	1.131907e-07	

Index   v-sweep         v(out)          
--------------------------------------------------------------------------------
55	5.500000e-01	1.068691e-07	
56	5.600000e-01	1.012591e-07	
57	5.700000e-01	9.626504e-08	
58	5.800000e-01	9.180539e-08	
59	5.900000e-01	8.781246e-08	
60	6.000000e-01	8.422789e-08	
61	6.100000e-01	8.100297e-08	
62	6.200000e-01	7.809537e-08	
63	6.300000e-01	7.546960e-08	
64	6.400000e-01	7.309440e-08	
65	6.500000e-01	7.094348e-08	
66	6.600000e-01	6.899351e-08	
67	6.700000e-01	6.722483e-08	
68	6.800000e-01	6.561970e-08	
69	6.900000e-01	6.416320e-08	
70	7.000000e-01	6.284175e-08	
71	7.100000e-01	6.164394e-08	
72	7.200000e-01	6.055918e-08	
73	7.300000e-01	5.957845e-08	
74	7.400000e-01	5.869405e-08	
75	7.500000e-01	5.789840e-08	
76	7.600000e-01	5.718532e-08	
77	7.700000e-01	5.654917e-08	
78	7.800000e-01	5.598492e-08	
79	7.900000e-01	5.548805e-08	
80	8.000000e-01	5.505472e-08	
81	8.100000e-01	5.468106e-08	
82	8.200000e-01	5.436412e-08	
83	8.300000e-01	5.410076e-08	
84	8.400000e-01	5.388868e-08	
85	8.500000e-01	5.372528e-08	
86	8.600000e-01	5.360872e-08	
87	8.700000e-01	5.353692e-08	
88	8.800000e-01	5.350845e-08	
89	8.900000e-01	5.352157e-08	
90	9.000000e-01	5.357518e-08	
91	9.100000e-01	5.366787e-08	
92	9.200000e-01	5.379882e-08	
93	9.300000e-01	5.396687e-08	
94	9.400000e-01	5.417139e-08	
95	9.500000e-01	5.441147e-08	
96	9.600000e-01	5.468670e-08	
97	9.700000e-01	5.499633e-08	
98	9.800000e-01	5.534007e-08	
99	9.900000e-01	5.571737e-08	
100	1.000000e+00	5.612810e-08	
101	1.010000e+00	5.657181e-08	
102	1.020000e+00	5.704833e-08	
103	1.030000e+00	5.755786e-08	
104	1.040000e+00	5.809990e-08	
105	1.050000e+00	5.867456e-08	
106	1.060000e+00	5.928185e-08	
107	1.070000e+00	5.992184e-08	
108	1.080000e+00	6.059459e-08	
109	1.090000e+00	6.130026e-08	
110	1.100000e+00	6.203916e-08	
111	1.110000e+00	6.281122e-08	
112	1.120000e+00	6.361699e-08	

Index   v-sweep         v(out)          
--------------------------------------------------------------------------------
113	1.130000e+00	6.445644e-08	
114	1.140000e+00	6.533022e-08	
115	1.150000e+00	6.623834e-08	
116	1.160000e+00	6.718147e-08	
117	1.170000e+00	6.815972e-08	
118	1.180000e+00	6.917383e-08	
119	1.190000e+00	7.022394e-08	
120	1.200000e+00	7.131083e-08	
121	1.210000e+00	7.243472e-08	
122	1.220000e+00	7.359644e-08	
123	1.230000e+00	7.479625e-08	
124	1.240000e+00	7.603502e-08	
125	1.250000e+00	7.731306e-08	
126	1.260000e+00	7.863130e-08	
127	1.270000e+00	7.999011e-08	
128	1.280000e+00	8.139042e-08	
129	1.290000e+00	8.283267e-08	
130	1.300000e+00	8.431785e-08	
131	1.310000e+00	8.584644e-08	
132	1.320000e+00	8.741944e-08	
133	1.330000e+00	8.903740e-08	
134	1.340000e+00	9.070138e-08	
135	1.350000e+00	9.241195e-08	
136	1.360000e+00	9.417020e-08	
137	1.370000e+00	9.597677e-08	
138	1.380000e+00	9.783279e-08	
139	1.390000e+00	9.973894e-08	
140	1.400000e+00	1.016964e-07	
141	1.410000e+00	1.037059e-07	
142	1.420000e+00	1.057686e-07	
143	1.430000e+00	1.078853e-07	
144	1.440000e+00	1.100573e-07	
145	1.450000e+00	1.122853e-07	
146	1.460000e+00	1.145707e-07	
147	1.470000e+00	1.169144e-07	
148	1.480000e+00	1.193177e-07	
149	1.490000e+00	1.217814e-07	
150	1.500000e+00	1.243071e-07	
151	1.510000e+00	1.268956e-07	
152	1.520000e+00	1.295483e-07	
153	1.530000e+00	1.322664e-07	
154	1.540000e+00	1.350512e-07	
155	1.550000e+00	1.379131e-07	
156	1.560000e+00	1.408658e-07	
157	1.570000e+00	1.439085e-07	
158	1.580000e+00	1.470433e-07	
159	1.590000e+00	1.502698e-07	
160	1.600000e+00	1.535900e-07	
161	1.610000e+00	1.570039e-07	
162	1.620000e+00	1.605136e-07	
163	1.630000e+00	1.641193e-07	
164	1.640000e+00	1.678231e-07	
165	1.650000e+00	1.716256e-07	
166	1.660000e+00	1.755285e-07	
167	1.670000e+00	1.795332e-07	
168	1.680000e+00	1.836412e-07	
169	1.690000e+00	1.878540e-07	
170	1.700000e+00	1.921733e-07	

Index   v-sweep         v(out)          
--------------------------------------------------------------------------------
171	1.710000e+00	1.966007e-07	
172	1.720000e+00	2.011379e-07	
173	1.730000e+00	2.057868e-07	
174	1.740000e+00	2.105490e-07	
175	1.750000e+00	2.154267e-07	
176	1.760000e+00	2.204216e-07	
177	1.770000e+00	2.255358e-07	
178	1.780000e+00	2.307712e-07	
179	1.790000e+00	2.361301e-07	
180	1.800000e+00	2.416145e-07	
181	1.810000e+00	2.472267e-07	
182	1.820000e+00	2.529689e-07	
183	1.830000e+00	2.588433e-07	
184	1.840000e+00	2.648524e-07	
185	1.850000e+00	2.709984e-07	
186	1.860000e+00	2.772841e-07	
187	1.870000e+00	2.837117e-07	
188	1.880000e+00	2.902839e-07	
189	1.890000e+00	2.970033e-07	
190	1.900000e+00	3.038726e-07	
191	1.910000e+00	3.108945e-07	
192	1.920000e+00	3.180716e-07	
193	1.930000e+00	3.254071e-07	
194	1.940000e+00	3.329036e-07	
195	1.950000e+00	3.405644e-07	
196	1.960000e+00	3.483920e-07	
197	1.970000e+00	3.563900e-07	
198	1.980000e+00	3.645611e-07	
199	1.990000e+00	3.729088e-07	
200	2.000000e+00	3.814363e-07	

                              * 51 stage Ring-Osc.
--------------------------------------------------------------------------------
Index   time            v(out)          
--------------------------------------------------------------------------------
0	0.000000e+00	-1.970493e-07	
1	2.000000e-12	3.365017e-04	
2	4.000000e-12	6.433977e-04	
3	8.000000e-12	1.222480e-03	
4	1.600000e-11	2.291150e-03	
5	3.200000e-11	4.410425e-03	
6	6.400000e-11	8.730650e-03	
7	1.280000e-10	2.210912e-02	
8	2.560000e-10	8.707556e-02	
9	2.790973e-10	1.106426e-01	
10	3.252918e-10	1.689454e-01	
11	3.961363e-10	2.795307e-01	
12	4.055897e-10	2.952214e-01	
13	4.244963e-10	3.268981e-01	
14	4.623095e-10	3.898959e-01	
15	4.670162e-10	3.975788e-01	
16	4.764294e-10	4.128609e-01	
17	4.952559e-10	4.423630e-01	
18	5.184222e-10	4.765572e-01	
19	5.456745e-10	5.143690e-01	
20	5.499063e-10	5.201006e-01	
21	5.583697e-10	5.315897e-01	
22	5.752967e-10	5.546660e-01	
23	5.947655e-10	5.813224e-01	
24	6.148403e-10	6.091772e-01	
25	6.361656e-10	6.391162e-01	
26	6.573353e-10	6.690267e-01	
27	6.805497e-10	6.977004e-01	
28	7.027162e-10	6.596566e-01	
29	7.265061e-10	3.962654e-01	
30	7.485520e-10	1.080705e-01	
31	7.728197e-10	1.691780e-02	
32	7.980268e-10	1.590066e-02	
33	8.294940e-10	1.431971e-02	
34	8.752216e-10	1.391428e-02	
35	9.482128e-10	1.485691e-02	
36	1.000000e-09	1.540479e-02	
37	1.012750e-09	7.623604e-03	
38	1.038250e-09	1.078244e-03	
39	1.089251e-09	2.369915e-03	
40	1.191252e-09	2.461431e-03	
41	1.348890e-09	3.644221e-03	
42	1.664166e-09	2.665362e-03	
43	2.047925e-09	1.599912e-03	
44	2.109668e-09	1.687048e-03	
45	2.233155e-09	1.642791e-03	
46	2.264026e-09	1.703810e-03	
47	2.325770e-09	1.770303e-03	
48	2.341206e-09	1.789827e-03	
49	2.372077e-09	1.834609e-03	
50	2.406698e-09	1.907067e-03	
51	2.439596e-09	1.890944e-03	
52	2.442439e-09	1.890173e-03	
53	2.448125e-09	1.882097e-03	
54	2.454631e-09	1.878139e-03	

Index   time            v(out)          
--------------------------------------------------------------------------------
55	2.461331e-09	1.864951e-03	
56	2.468911e-09	1.860702e-03	
57	2.476709e-09	1.881452e-03	
58	2.477841e-09	1.885585e-03	
59	2.480105e-09	1.893001e-03	
60	2.484634e-09	1.904404e-03	
61	2.489465e-09	1.913888e-03	
62	2.494181e-09	1.924337e-03	
63	2.501906e-09	1.933307e-03	
64	2.509929e-09	1.939960e-03	
65	2.515965e-09	1.948750e-03	
66	2.521711e-09	1.926354e-03	
67	2.528619e-09	1.911127e-03	
68	2.535978e-09	1.897828e-03	
69	2.542693e-09	1.886201e-03	
70	2.549511e-09	1.873609e-03	
71	2.555559e-09	1.860845e-03	
72	2.562360e-09	1.845439e-03	
73	2.571519e-09	1.821947e-03	
74	2.577803e-09	1.805208e-03	
75	2.583834e-09	1.787318e-03	
76	2.591057e-09	1.769455e-03	
77	2.598664e-09	1.753270e-03	
78	2.605032e-09	1.741660e-03	
79	2.611118e-09	1.735868e-03	
80	2.612559e-09	1.727139e-03	
81	2.615442e-09	1.730666e-03	
82	2.621209e-09	1.728211e-03	
83	2.628939e-09	1.722196e-03	
84	2.635073e-09	1.716427e-03	
85	2.641144e-09	1.723133e-03	
86	2.642596e-09	1.722942e-03	
87	2.645502e-09	1.724142e-03	
88	2.651312e-09	1.723043e-03	
89	2.659075e-09	1.723492e-03	
90	2.665312e-09	1.725423e-03	
91	2.671542e-09	1.726019e-03	
92	2.673013e-09	1.726579e-03	
93	2.675955e-09	1.725985e-03	
94	2.681838e-09	1.725519e-03	
95	2.689561e-09	1.721637e-03	
96	2.695777e-09	1.725969e-03	
97	2.701980e-09	1.727323e-03	
98	2.703446e-09	1.727830e-03	
99	2.706376e-09	1.727959e-03	
100	2.712237e-09	1.728420e-03	
101	2.719938e-09	1.729527e-03	
102	2.726180e-09	1.730308e-03	
103	2.732422e-09	1.728004e-03	
104	2.733887e-09	1.729176e-03	
105	2.736817e-09	1.729264e-03	
106	2.742677e-09	1.728017e-03	
107	2.750330e-09	1.724077e-03	
108	2.756585e-09	1.730070e-03	
109	2.762848e-09	1.729070e-03	
110	2.764312e-09	1.730458e-03	
111	2.767240e-09	1.731220e-03	
112	2.773096e-09	1.731318e-03	

Index   time            v(out)          
--------------------------------------------------------------------------------
113	2.780725e-09	1.723657e-03	
114	2.786994e-09	1.721533e-03	
115	2.793277e-09	1.718434e-03	
116	2.794721e-09	1.721037e-03	
117	2.797609e-09	1.726555e-03	
118	2.803386e-09	1.733807e-03	
119	2.810993e-09	1.728571e-03	
120	2.817327e-09	1.722168e-03	
121	2.823697e-09	1.723378e-03	
122	2.829385e-09	1.720162e-03	
123	2.836341e-09	1.719699e-03	
124	2.845191e-09	1.715526e-03	
125	2.851330e-09	1.719021e-03	
126	2.857205e-09	1.713677e-03	
127	2.864828e-09	1.713707e-03	
128	2.872107e-09	1.714177e-03	
129	2.878664e-09	1.713865e-03	
130	2.885130e-09	1.712034e-03	
131	2.886572e-09	1.712028e-03	
132	2.889458e-09	1.711523e-03	
133	2.895229e-09	1.709828e-03	
134	2.903005e-09	1.705289e-03	
135	2.909235e-09	1.705882e-03	
136	2.915457e-09	1.705654e-03	
137	2.916926e-09	1.705687e-03	
138	2.919866e-09	1.706261e-03	
139	2.925745e-09	1.704353e-03	
140	2.933475e-09	1.700513e-03	
141	2.939690e-09	1.699611e-03	
142	2.945893e-09	1.698692e-03	
143	2.947358e-09	1.698324e-03	
144	2.950288e-09	1.697432e-03	
145	2.956149e-09	1.696095e-03	
146	2.963857e-09	1.692830e-03	
147	2.970093e-09	1.692429e-03	
148	2.976327e-09	1.691827e-03	
149	2.977792e-09	1.691051e-03	
150	2.980720e-09	1.690143e-03	
151	2.986578e-09	1.689464e-03	
152	2.994232e-09	1.687247e-03	
153	3.000487e-09	1.688578e-03	
154	3.006750e-09	1.688009e-03	
155	3.008214e-09	1.687400e-03	
156	3.011142e-09	1.686771e-03	
157	3.016997e-09	1.684539e-03	
158	3.024626e-09	1.681395e-03	
159	3.030896e-09	1.677280e-03	
160	3.037182e-09	1.677020e-03	
161	3.038622e-09	1.676024e-03	
162	3.041503e-09	1.674947e-03	
163	3.047264e-09	1.674108e-03	
164	3.054871e-09	1.674026e-03	
165	3.061218e-09	1.674903e-03	
166	3.067604e-09	1.677425e-03	
167	3.073309e-09	1.677668e-03	
168	3.080250e-09	1.676711e-03	
169	3.089119e-09	1.676092e-03	
170	3.095262e-09	1.676415e-03	

Index   time            v(out)          
--------------------------------------------------------------------------------
171	3.101142e-09	1.722236e-03	
172	3.108753e-09	1.666622e-03	
173	3.116032e-09	1.493483e-03	
174	3.122581e-09	1.082057e-03	
175	3.129034e-09	2.548502e-03	
176	3.130479e-09	3.218160e-03	
177	3.133371e-09	4.917883e-03	
178	3.139154e-09	6.754421e-03	
179	3.146933e-09	-2.295573e-03	
180	3.153153e-09	-3.898185e-02	
181	3.159362e-09	-2.313315e-02	
182	3.160762e-09	4.787250e-03	
183	3.163561e-09	8.099468e-02	
184	3.169161e-09	3.421296e-01	
185	3.176064e-09	7.395250e-01	
186	3.182990e-09	1.266680e+00	
187	3.189695e-09	1.676770e+00	
188	3.196835e-09	1.904705e+00	
189	3.204595e-09	1.966854e+00	
190	3.210400e-09	1.992602e+00	
191	3.215958e-09	1.993376e+00	
192	3.222972e-09	1.993929e+00	
193	3.230835e-09	1.998521e+00	
194	3.238483e-09	1.999899e+00	
195	3.244757e-09	1.999636e+00	
196	3.251231e-09	1.999919e+00	
197	3.257485e-09	1.999987e+00	
198	3.266537e-09	2.000030e+00	
199	3.272807e-09	1.999989e+00	
200	3.278653e-09	2.000016e+00	
201	3.286039e-09	1.999982e+00	
202	3.293673e-09	2.000108e+00	
203	3.300382e-09	1.999999e+00	
204	3.307103e-09	2.000021e+00	
205	3.313078e-09	2.000027e+00	
206	3.320101e-09	2.000001e+00	
207	3.329081e-09	2.000023e+00	
208	3.335297e-09	2.000021e+00	
209	3.341328e-09	2.000020e+00	
210	3.348187e-09	2.000024e+00	
211	3.355955e-09	2.000022e+00	
212	3.362250e-09	2.000023e+00	
213	3.368254e-09	2.000022e+00	
214	3.369679e-09	2.000021e+00	
215	3.372528e-09	2.000024e+00	
216	3.378226e-09	2.000031e+00	
217	3.386076e-09	2.000029e+00	
218	3.392143e-09	2.000025e+00	
219	3.398141e-09	2.000027e+00	
220	3.399569e-09	2.000026e+00	
221	3.402426e-09	2.000030e+00	
222	3.408139e-09	2.000037e+00	
223	3.415853e-09	2.000031e+00	
224	3.422066e-09	2.000028e+00	
225	3.428290e-09	2.000030e+00	
226	3.429688e-09	2.000029e+00	
227	3.432483e-09	2.000035e+00	
228	3.438074e-09	2.000048e+00	

Index   time            v(out)          
--------------------------------------------------------------------------------
229	3.445675e-09	2.000032e+00	
230	3.452627e-09	2.000023e+00	
231	3.459025e-09	2.000035e+00	
232	3.460419e-09	2.000045e+00	
233	3.463206e-09	2.000052e+00	
234	3.468780e-09	2.000045e+00	
235	3.475748e-09	2.000043e+00	
236	3.482073e-09	2.000054e+00	
237	3.488488e-09	2.000060e+00	
238	3.494259e-09	2.000067e+00	
239	3.500853e-09	2.000070e+00	
240	3.509779e-09	2.000062e+00	
241	3.515900e-09	2.000081e+00	
242	3.521667e-09	2.000096e+00	
243	3.529787e-09	2.000079e+00	
244	3.537171e-09	2.000085e+00	
245	3.543774e-09	2.000100e+00	
246	3.550245e-09	2.000104e+00	
247	3.551676e-09	2.000160e+00	
248	3.554539e-09	2.000199e+00	
249	3.560263e-09	2.000116e+00	
250	3.567931e-09	2.000079e+00	
251	3.574072e-09	1.999963e+00	
252	3.580196e-09	1.999933e+00	
253	3.581622e-09	1.999930e+00	
254	3.584475e-09	1.999979e+00	
255	3.590180e-09	1.999994e+00	
256	3.597782e-09	1.999998e+00	
257	3.604087e-09	2.000019e+00	
258	3.610435e-09	1.999920e+00	
259	3.616142e-09	1.999935e+00	
260	3.623024e-09	1.999884e+00	
261	3.631933e-09	1.999862e+00	
262	3.638024e-09	1.999902e+00	
263	3.643843e-09	1.999904e+00	
264	3.651315e-09	1.999914e+00	
265	3.658638e-09	1.999921e+00	
266	3.665187e-09	1.999832e+00	
267	3.671667e-09	1.999797e+00	
268	3.677398e-09	1.999771e+00	
269	3.684506e-09	1.999818e+00	
270	3.693301e-09	1.999805e+00	
271	3.699395e-09	1.999827e+00	
272	3.705264e-09	1.999827e+00	
273	3.712265e-09	1.999797e+00	
274	3.719656e-09	1.999811e+00	
275	3.726124e-09	1.999795e+00	
276	3.732507e-09	1.999794e+00	
277	3.733933e-09	1.999777e+00	
278	3.736785e-09	1.999770e+00	
279	3.742489e-09	1.999776e+00	
280	3.750196e-09	1.999790e+00	
281	3.756401e-09	1.999781e+00	
282	3.762614e-09	1.999789e+00	
283	3.764016e-09	1.999798e+00	
284	3.766822e-09	1.999853e+00	
285	3.772433e-09	1.999889e+00	
286	3.780040e-09	1.999854e+00	

Index   time            v(out)          
--------------------------------------------------------------------------------
287	3.787000e-09	1.999876e+00	
288	3.793380e-09	1.999869e+00	
289	3.794819e-09	1.999862e+00	
290	3.797696e-09	1.999862e+00	
291	3.803451e-09	1.999884e+00	
292	3.811110e-09	1.999880e+00	
293	3.817219e-09	1.999876e+00	
294	3.823292e-09	1.999903e+00	
295	3.824713e-09	1.999915e+00	
296	3.827557e-09	1.999934e+00	
297	3.833244e-09	1.999959e+00	
298	3.840850e-09	1.999936e+00	
299	3.847164e-09	1.999942e+00	
300	3.853522e-09	1.999962e+00	
301	3.859237e-09	1.999983e+00	
302	3.866115e-09	1.999952e+00	
303	3.875032e-09	1.999930e+00	
304	3.881125e-09	2.000002e+00	
305	3.886948e-09	2.000653e+00	
306	3.894409e-09	2.000563e+00	
307	3.901729e-09	1.998198e+00	
308	3.908273e-09	1.990714e+00	
309	3.914745e-09	2.003883e+00	
310	3.920468e-09	2.054900e+00	
311	3.927582e-09	2.096996e+00	
312	3.936370e-09	1.838234e+00	
313	3.942415e-09	1.336593e+00	
314	3.948303e-09	9.454426e-01	
315	3.955166e-09	5.862318e-01	
316	3.963241e-09	2.966022e-01	
317	3.976101e-09	6.250135e-02	
318	3.989211e-09	2.543071e-02	
319	3.999466e-09	2.464691e-02	
320	4.009982e-09	6.496248e-03	
321	4.018354e-09	6.130578e-03	
322	4.026895e-09	3.272488e-03	
323	4.034295e-09	2.403176e-03	
324	4.042103e-09	2.434085e-03	
325	4.048381e-09	2.146076e-03	
326	4.054528e-09	2.028781e-03	
327	4.060239e-09	1.994693e-03	
328	4.067278e-09	1.973058e-03	
329	4.076079e-09	1.936438e-03	
330	4.082169e-09	1.931884e-03	
331	4.087987e-09	1.931316e-03	
332	4.095333e-09	1.929457e-03	
333	4.102759e-09	1.926285e-03	
334	4.109327e-09	1.926435e-03	
335	4.115839e-09	1.924924e-03	
336	4.121603e-09	1.923056e-03	
337	4.128742e-09	1.922030e-03	
338	4.137572e-09	1.919245e-03	
339	4.143708e-09	1.917725e-03	
340	4.149618e-09	1.914014e-03	
341	4.156565e-09	1.916026e-03	
342	4.164076e-09	1.926848e-03	
343	4.170512e-09	1.931031e-03	
344	4.176816e-09	1.930850e-03	

Index   time            v(out)          
--------------------------------------------------------------------------------
345	4.178187e-09	1.931039e-03	
346	4.180927e-09	1.931690e-03	
347	4.186407e-09	1.939735e-03	
348	4.193212e-09	1.940915e-03	
349	4.200337e-09	1.944990e-03	
350	4.206861e-09	1.949532e-03	
351	4.212879e-09	1.955437e-03	
352	4.219789e-09	1.962557e-03	
353	4.228857e-09	1.970825e-03	
354	4.235098e-09	1.983094e-03	
355	4.241057e-09	1.997067e-03	
356	4.248128e-09	2.014426e-03	
357	4.255709e-09	2.038916e-03	
358	4.262068e-09	2.057896e-03	
359	4.268195e-09	2.082834e-03	
360	4.269555e-09	2.089065e-03	
361	4.272276e-09	2.103633e-03	
362	4.277719e-09	2.132414e-03	
363	4.284537e-09	2.173107e-03	
364	4.291675e-09	2.218218e-03	
365	4.298161e-09	2.271186e-03	
366	4.304140e-09	2.310335e-03	
367	4.311124e-09	2.371290e-03	
368	4.320124e-09	2.442587e-03	
369	4.326351e-09	2.486929e-03	
370	4.332309e-09	2.528420e-03	
371	4.339313e-09	2.576606e-03	
372	4.346916e-09	2.618712e-03	
373	4.353276e-09	2.659010e-03	
374	4.359412e-09	2.690480e-03	
375	4.360774e-09	2.697290e-03	
376	4.363500e-09	2.708138e-03	
377	4.368951e-09	2.741024e-03	
378	4.375774e-09	2.762488e-03	
379	4.382914e-09	2.791196e-03	
380	4.389388e-09	2.802019e-03	
381	4.395357e-09	2.799791e-03	
382	4.402358e-09	2.805227e-03	
383	4.411341e-09	2.814858e-03	
384	4.417564e-09	2.802079e-03	
385	4.423520e-09	2.796986e-03	
386	4.430520e-09	2.784027e-03	
387	4.438119e-09	2.777877e-03	
388	4.444481e-09	2.778942e-03	
389	4.450623e-09	2.769106e-03	
390	4.451985e-09	2.763653e-03	
391	4.454709e-09	2.748902e-03	
392	4.460157e-09	2.724345e-03	
393	4.466963e-09	2.730770e-03	
394	4.474103e-09	2.723709e-03	
395	4.480599e-09	2.714473e-03	
396	4.486588e-09	2.667786e-03	
397	4.493557e-09	2.686061e-03	
398	4.502570e-09	2.682174e-03	
399	4.508801e-09	2.683587e-03	
400	4.514762e-09	2.687080e-03	
401	4.521775e-09	2.652256e-03	
402	4.529378e-09	2.684641e-03	

Index   time            v(out)          
--------------------------------------------------------------------------------
403	4.535735e-09	2.706425e-03	
404	4.541864e-09	2.734698e-03	
405	4.543226e-09	2.713657e-03	
406	4.545949e-09	2.741575e-03	
407	4.551396e-09	2.792802e-03	
408	4.558218e-09	2.844035e-03	
409	4.565357e-09	2.951473e-03	
410	4.571832e-09	2.943033e-03	
411	4.577802e-09	3.009289e-03	
412	4.584800e-09	3.045551e-03	
413	4.593787e-09	3.079411e-03	
414	4.594858e-09	3.081062e-03	
415	4.597001e-09	3.077446e-03	
416	4.601286e-09	3.053217e-03	
417	4.605961e-09	3.080433e-03	
418	4.613279e-09	3.058836e-03	
419	4.620756e-09	2.977608e-03	
420	4.626778e-09	3.044665e-03	
421	4.632520e-09	3.035768e-03	
422	4.638593e-09	3.063056e-03	
423	4.645895e-09	3.023342e-03	
424	4.654641e-09	3.041643e-03	
425	4.660737e-09	3.043923e-03	
426	4.666680e-09	3.083293e-03	
427	4.673504e-09	2.926169e-03	
428	4.681074e-09	2.777295e-03	
429	4.687489e-09	2.300167e-03	
430	4.693765e-09	3.868410e-03	
431	4.695137e-09	4.574341e-03	
432	4.697880e-09	6.022951e-03	
433	4.703367e-09	7.534076e-03	
434	4.710178e-09	1.702142e-03	
435	4.717310e-09	-3.830536e-02	
436	4.723832e-09	-2.613722e-02	
437	4.729848e-09	1.645376e-01	
438	4.736775e-09	5.458692e-01	
439	4.745783e-09	1.096635e+00	
440	4.754213e-09	1.579544e+00	
441	4.762549e-09	1.917448e+00	
442	4.771106e-09	1.967566e+00	
443	4.780241e-09	1.973626e+00	
444	4.786592e-09	1.995736e+00	
445	4.792608e-09	1.993755e+00	
446	4.794073e-09	1.993412e+00	
447	4.797003e-09	1.993424e+00	
448	4.802863e-09	1.996147e+00	
449	4.809974e-09	1.998958e+00	
450	4.815879e-09	1.999466e+00	
451	4.821480e-09	1.999452e+00	
452	4.827872e-09	1.999867e+00	
453	4.835326e-09	1.999971e+00	
454	4.844113e-09	2.000017e+00	
455	4.850264e-09	2.000021e+00	
456	4.856504e-09	2.000008e+00	
457	4.863122e-09	2.000019e+00	
458	4.871367e-09	2.000029e+00	
459	4.877607e-09	2.000028e+00	
460	4.883442e-09	2.000039e+00	

Index   time            v(out)          
--------------------------------------------------------------------------------
461	4.891073e-09	2.000038e+00	
462	4.899178e-09	2.000042e+00	
463	4.906168e-09	2.000051e+00	
464	4.913269e-09	2.000057e+00	
465	4.919583e-09	2.000064e+00	
466	4.926566e-09	1.999999e+00	
467	4.935806e-09	2.000026e+00	
468	4.942196e-09	2.000023e+00	
469	4.948815e-09	2.000028e+00	
470	4.955656e-09	2.000030e+00	
471	4.965057e-09	2.000032e+00	
472	4.971455e-09	2.000031e+00	
473	4.977429e-09	2.000026e+00	
474	4.984627e-09	2.000030e+00	
475	4.992280e-09	2.000030e+00	
476	4.998560e-09	2.000031e+00	
477	5.004501e-09	2.000030e+00	
478	5.005838e-09	2.000034e+00	
479	5.008512e-09	2.000031e+00	
480	5.013860e-09	2.000033e+00	
481	5.020665e-09	2.000036e+00	
482	5.027055e-09	2.000035e+00	
483	5.033636e-09	2.000033e+00	
484	5.039524e-09	2.000033e+00	
485	5.046055e-09	2.000036e+00	
486	5.054179e-09	2.000033e+00	
487	5.060221e-09	2.000032e+00	
488	5.065789e-09	2.000031e+00	
489	5.074087e-09	2.000029e+00	
490	5.082207e-09	2.000030e+00	
491	5.089026e-09	2.000025e+00	
492	5.095725e-09	2.000024e+00	
493	5.100000e-09	2.000021e+00	
494	5.101142e-09	1.999894e+00	
495	5.103426e-09	1.999698e+00	
496	5.107994e-09	1.999517e+00	
497	5.114819e-09	1.999445e+00	
498	5.119838e-09	1.999434e+00	
499	5.124906e-09	1.999427e+00	
500	5.132558e-09	1.999418e+00	
501	5.139652e-09	1.999411e+00	
502	5.147759e-09	1.999407e+00	
503	5.153758e-09	1.999393e+00	
504	5.159909e-09	1.999383e+00	
505	5.166244e-09	1.999373e+00	
506	5.174377e-09	1.999366e+00	
507	5.180622e-09	1.999348e+00	
508	5.186584e-09	1.999337e+00	
509	5.187959e-09	1.999335e+00	
510	5.190710e-09	1.999331e+00	
511	5.196210e-09	1.999319e+00	
512	5.203127e-09	1.999308e+00	
513	5.209323e-09	1.999298e+00	
514	5.215577e-09	1.999297e+00	
515	5.221323e-09	1.999283e+00	
516	5.227968e-09	1.999273e+00	
517	5.236811e-09	1.999265e+00	
518	5.242884e-09	1.999260e+00	

Index   time            v(out)          
--------------------------------------------------------------------------------
519	5.248593e-09	1.999268e+00	
520	5.256573e-09	1.999252e+00	
521	5.264230e-09	1.999254e+00	
522	5.270873e-09	1.999255e+00	
523	5.277399e-09	1.999270e+00	
524	5.278784e-09	1.999268e+00	
525	5.281552e-09	1.999269e+00	
526	5.287090e-09	1.999263e+00	
527	5.293939e-09	1.999267e+00	
528	5.300234e-09	1.999271e+00	
529	5.306673e-09	1.999286e+00	
530	5.312460e-09	1.999280e+00	
531	5.319025e-09	1.999286e+00	
532	5.327910e-09	1.999293e+00	
533	5.334012e-09	1.999313e+00	
534	5.339721e-09	1.999305e+00	
535	5.347729e-09	1.999310e+00	
536	5.355369e-09	1.999315e+00	
537	5.361994e-09	1.999334e+00	
538	5.368487e-09	1.999326e+00	
539	5.369867e-09	1.999345e+00	
540	5.372627e-09	1.999376e+00	
541	5.378147e-09	1.999340e+00	
542	5.384983e-09	1.999333e+00	
543	5.391297e-09	1.999341e+00	
544	5.397776e-09	1.999330e+00	
545	5.403589e-09	1.999326e+00	
546	5.410143e-09	1.999335e+00	
547	5.419076e-09	1.999298e+00	
548	5.425191e-09	1.999274e+00	
549	5.430919e-09	1.999283e+00	
550	5.438895e-09	1.999199e+00	
551	5.446490e-09	1.999156e+00	
552	5.453084e-09	1.999079e+00	
553	5.459537e-09	1.999639e+00	
554	5.460907e-09	1.999752e+00	
555	5.463648e-09	1.999985e+00	
556	5.469129e-09	1.999771e+00	
557	5.475921e-09	1.997712e+00	
558	5.482299e-09	1.990224e+00	
559	5.488916e-09	1.999478e+00	
560	5.494816e-09	2.050083e+00	
561	5.501340e-09	2.101488e+00	
562	5.509457e-09	1.960002e+00	
563	5.515423e-09	1.544759e+00	
564	5.520878e-09	1.187383e+00	
565	5.528746e-09	7.368724e-01	
566	5.536471e-09	3.847534e-01	
567	5.546927e-09	1.210113e-01	
568	5.553981e-09	8.197560e-02	
569	5.560468e-09	4.664338e-02	
570	5.561774e-09	4.054704e-02	
571	5.564387e-09	2.976963e-02	
572	5.569611e-09	1.667061e-02	
573	5.576508e-09	8.811276e-03	
574	5.581903e-09	5.654085e-03	
575	5.587050e-09	3.116960e-03	
576	5.593721e-09	1.528803e-03	

Index   time            v(out)          
--------------------------------------------------------------------------------
577	5.600823e-09	1.119293e-03	
578	5.609835e-09	7.745542e-04	
579	5.615959e-09	5.888462e-04	
580	5.622077e-09	5.218859e-04	
581	5.628838e-09	5.170458e-04	
582	5.636763e-09	4.746564e-04	
583	5.643029e-09	4.661272e-04	
584	5.648981e-09	4.664155e-04	
585	5.650298e-09	4.666165e-04	
586	5.652933e-09	4.663964e-04	
587	5.658202e-09	4.649742e-04	
588	5.664890e-09	4.639766e-04	
589	5.671971e-09	4.642710e-04	
590	5.678466e-09	4.641315e-04	
591	5.684470e-09	4.649123e-04	
592	5.691363e-09	4.652393e-04	
593	5.700437e-09	4.657144e-04	
594	5.706646e-09	4.666594e-04	
595	5.712563e-09	4.674156e-04	
596	5.719586e-09	4.690361e-04	
597	5.727190e-09	4.703677e-04	
598	5.733560e-09	4.720705e-04	
599	5.739728e-09	4.732320e-04	
600	5.745928e-09	4.755861e-04	
601	5.753296e-09	4.776574e-04	
602	5.762182e-09	4.800702e-04	
603	5.768464e-09	4.835034e-04	
604	5.774811e-09	4.875398e-04	
605	5.781508e-09	4.915302e-04	
606	5.790095e-09	4.969423e-04	
607	5.796372e-09	5.055139e-04	
608	5.802177e-09	5.120011e-04	
609	5.810542e-09	5.223545e-04	
610	5.818480e-09	5.368181e-04	
611	5.825106e-09	5.493709e-04	
612	5.831507e-09	5.609471e-04	
613	5.832856e-09	5.627409e-04	
614	5.835553e-09	5.690636e-04	
615	5.840947e-09	5.812793e-04	
616	5.847664e-09	6.224425e-04	
617	5.854024e-09	6.566843e-04	
618	5.860568e-09	6.935140e-04	
619	5.866429e-09	7.258083e-04	
620	5.872960e-09	7.703505e-04	
621	5.881982e-09	8.330582e-04	
622	5.888128e-09	8.726507e-04	
623	5.893886e-09	9.048520e-04	
624	5.901806e-09	9.812392e-04	
625	5.909458e-09	1.044644e-03	
626	5.916031e-09	1.095608e-03	
627	5.922450e-09	1.141973e-03	
628	5.928486e-09	1.182564e-03	
629	5.935787e-09	1.229709e-03	
630	5.944672e-09	1.274003e-03	
631	5.950937e-09	1.309740e-03	
632	5.957159e-09	1.340820e-03	
633	5.963871e-09	1.369625e-03	
634	5.972156e-09	1.400072e-03	

Index   time            v(out)          
--------------------------------------------------------------------------------
635	5.978423e-09	1.398857e-03	
636	5.984262e-09	1.402176e-03	
637	5.992109e-09	1.407250e-03	
638	6.000278e-09	1.406663e-03	
639	6.007164e-09	1.412478e-03	
640	6.014047e-09	1.415553e-03	
641	6.020185e-09	1.417345e-03	
642	6.027384e-09	1.415419e-03	
643	6.036454e-09	1.419983e-03	
644	6.042825e-09	1.419727e-03	
645	6.049353e-09	1.420247e-03	
646	6.056134e-09	1.418092e-03	
647	6.065269e-09	1.415438e-03	
648	6.071618e-09	1.428326e-03	
649	6.077447e-09	1.440049e-03	
650	6.084909e-09	1.417274e-03	
651	6.092435e-09	1.476073e-03	
652	6.098854e-09	1.523673e-03	
653	6.105075e-09	1.531943e-03	
654	6.111217e-09	1.641207e-03	
655	6.118543e-09	1.783053e-03	
656	6.127427e-09	1.895261e-03	
657	6.133684e-09	1.945553e-03	
658	6.139944e-09	1.985653e-03	
659	6.146644e-09	1.963725e-03	
660	6.155008e-09	2.039857e-03	
661	6.161282e-09	2.070076e-03	
662	6.167106e-09	2.091998e-03	
663	6.175166e-09	2.052203e-03	
664	6.183441e-09	2.109267e-03	
665	6.190239e-09	2.125656e-03	
666	6.196928e-09	2.134835e-03	
667	6.198332e-09	2.134081e-03	
668	6.201141e-09	2.122543e-03	
669	6.206758e-09	2.080925e-03	
670	6.213770e-09	2.107518e-03	
671	6.219877e-09	2.033471e-03	
672	6.225994e-09	2.110742e-03	
673	6.231796e-09	2.069419e-03	
674	6.238554e-09	1.998782e-03	
675	6.247612e-09	1.706593e-03	
676	6.253704e-09	1.671744e-03	
677	6.259515e-09	4.240461e-03	
678	6.267128e-09	7.550327e-03	
679	6.274722e-09	-3.084754e-04	
680	6.281272e-09	-4.227436e-02	
681	6.287705e-09	-2.811732e-02	
682	6.293774e-09	1.755395e-01	
683	6.300959e-09	5.807597e-01	
684	6.309895e-09	1.138168e+00	
685	6.318714e-09	1.601078e+00	
686	6.328941e-09	1.958400e+00	
687	6.338634e-09	1.971672e+00	
688	6.347602e-09	1.976330e+00	
689	6.348914e-09	1.981114e+00	
690	6.351538e-09	1.990540e+00	
691	6.355129e-09	1.993275e+00	
692	6.359024e-09	1.991882e+00	

Index   time            v(out)          
--------------------------------------------------------------------------------
693	6.366066e-09	1.993123e+00	
694	6.373065e-09	1.996965e+00	
695	6.379895e-09	1.998703e+00	
696	6.385837e-09	1.998848e+00	
697	6.391793e-09	1.998955e+00	
698	6.397690e-09	1.999382e+00	
699	6.405680e-09	1.999411e+00	
700	6.412060e-09	1.999376e+00	
701	6.418357e-09	1.999401e+00	
702	6.424370e-09	1.999428e+00	
703	6.431639e-09	1.999428e+00	
704	6.440490e-09	1.999425e+00	
705	6.446671e-09	1.999429e+00	
706	6.452780e-09	1.999432e+00	
707	6.459467e-09	1.999434e+00	
708	6.467474e-09	1.999437e+00	
709	6.473709e-09	1.999434e+00	
710	6.479607e-09	1.999436e+00	
711	6.480912e-09	1.999436e+00	
712	6.483520e-09	1.999437e+00	
713	6.488738e-09	1.999438e+00	
714	6.495407e-09	1.999438e+00	
715	6.502465e-09	1.999439e+00	
716	6.508903e-09	1.999441e+00	
717	6.514878e-09	1.999441e+00	
718	6.521792e-09	1.999442e+00	
719	6.530833e-09	1.999443e+00	
720	6.537004e-09	1.999448e+00	
721	6.542889e-09	1.999445e+00	
722	6.549845e-09	1.999446e+00	
723	6.557454e-09	1.999446e+00	
724	6.563819e-09	1.999449e+00	
725	6.570002e-09	1.999445e+00	
726	6.576163e-09	1.999445e+00	
727	6.583483e-09	1.999445e+00	
728	6.592359e-09	1.999447e+00	
729	6.598593e-09	1.999445e+00	
730	6.604869e-09	1.999446e+00	
731	6.611555e-09	1.999446e+00	
732	6.619943e-09	1.999448e+00	
733	6.626180e-09	1.999452e+00	
734	6.631951e-09	1.999445e+00	
735	6.640690e-09	1.999444e+00	
736	6.648765e-09	1.999442e+00	
737	6.655436e-09	1.999444e+00	
738	6.661830e-09	1.999439e+00	
739	6.663171e-09	1.999438e+00	
740	6.665854e-09	1.999438e+00	
741	6.671220e-09	1.999435e+00	
742	6.677999e-09	1.999431e+00	
743	6.684237e-09	1.999430e+00	
744	6.690603e-09	1.999423e+00	
745	6.696444e-09	1.999418e+00	
746	6.702993e-09	1.999411e+00	
747	6.711893e-09	1.999406e+00	
748	6.717979e-09	1.999394e+00	
749	6.723666e-09	1.999385e+00	
750	6.731542e-09	1.999373e+00	

Index   time            v(out)          
--------------------------------------------------------------------------------
751	6.739401e-09	1.999367e+00	
752	6.746028e-09	1.999348e+00	
753	6.752516e-09	1.999336e+00	
754	6.753860e-09	1.999334e+00	
755	6.756548e-09	1.999331e+00	
756	6.761923e-09	1.999327e+00	
757	6.768536e-09	1.999310e+00	
758	6.775611e-09	1.999298e+00	
759	6.782043e-09	1.999289e+00	
760	6.788028e-09	1.999291e+00	
761	6.794910e-09	1.999275e+00	
762	6.803975e-09	1.999266e+00	
763	6.810149e-09	1.999262e+00	
764	6.816027e-09	1.999260e+00	
765	6.823016e-09	1.999267e+00	
766	6.830593e-09	1.999258e+00	
767	6.836970e-09	1.999258e+00	
768	6.843174e-09	1.999260e+00	
769	6.849296e-09	1.999272e+00	
770	6.856588e-09	1.999265e+00	
771	6.865461e-09	1.999269e+00	
772	6.871674e-09	1.999272e+00	
773	6.877889e-09	1.999287e+00	
774	6.884574e-09	1.999280e+00	
775	6.892812e-09	1.999284e+00	
776	6.899036e-09	1.999287e+00	
777	6.904840e-09	1.999301e+00	
778	6.912465e-09	1.999294e+00	
779	6.920457e-09	1.999297e+00	
780	6.927425e-09	1.999298e+00	
781	6.934621e-09	1.999310e+00	
782	6.940977e-09	1.999296e+00	
783	6.947944e-09	1.999290e+00	
784	6.957256e-09	1.999275e+00	
785	6.958332e-09	1.999272e+00	
786	6.960483e-09	1.999273e+00	
787	6.964785e-09	1.999271e+00	
788	6.971441e-09	1.999223e+00	
789	6.978840e-09	1.999171e+00	
790	6.987813e-09	1.999174e+00	
791	6.994744e-09	1.999141e+00	
792	7.001815e-09	1.999124e+00	
793	7.008771e-09	1.999097e+00	
794	7.016920e-09	1.999021e+00	
795	7.023296e-09	1.999237e+00	
796	7.029229e-09	1.999937e+00	
797	7.035763e-09	1.999511e+00	
798	7.043810e-09	1.996540e+00	
799	7.050043e-09	1.988640e+00	
800	7.055962e-09	2.005773e+00	
801	7.057269e-09	2.015139e+00	
802	7.059882e-09	2.040306e+00	
803	7.065107e-09	2.096893e+00	
804	7.071700e-09	2.076505e+00	
805	7.078737e-09	1.692285e+00	
806	7.085104e-09	1.283509e+00	
807	7.091347e-09	8.900855e-01	
808	7.098091e-09	5.456809e-01	

Index   time            v(out)          
--------------------------------------------------------------------------------
809	7.109146e-09	1.786490e-01	
810	7.117371e-09	9.178769e-02	
811	7.125649e-09	5.142728e-02	
812	7.126943e-09	4.421361e-02	
813	7.129531e-09	3.180725e-02	
814	7.134708e-09	1.744782e-02	
815	7.141229e-09	9.539306e-03	
816	7.146813e-09	6.045934e-03	
817	7.152146e-09	3.365717e-03	
818	7.158222e-09	1.687532e-03	
819	7.165150e-09	1.213910e-03	
820	7.174114e-09	8.436907e-04	
821	7.180132e-09	6.325911e-04	
822	7.185917e-09	5.374264e-04	
823	7.193310e-09	5.361033e-04	
824	7.201091e-09	4.899399e-04	
825	7.207657e-09	4.755542e-04	
826	7.214133e-09	4.759941e-04	
827	7.220148e-09	4.755185e-04	
828	7.227373e-09	4.728161e-04	
829	7.236320e-09	4.726161e-04	
830	7.242575e-09	4.720832e-04	
831	7.248750e-09	4.720181e-04	
832	7.255497e-09	4.714618e-04	
833	7.263682e-09	4.698064e-04	
834	7.269917e-09	4.726008e-04	
835	7.275750e-09	4.735942e-04	
836	7.283223e-09	4.748139e-04	
837	7.291148e-09	4.756385e-04	
838	7.298178e-09	4.757133e-04	
839	7.305731e-09	4.793153e-04	
840	7.312270e-09	4.806638e-04	
841	7.319143e-09	4.830158e-04	
842	7.327419e-09	4.849059e-04	
843	7.333718e-09	4.859534e-04	
844	7.339674e-09	4.862809e-04	
845	7.346224e-09	4.869437e-04	
846	7.354240e-09	4.886315e-04	
847	7.360498e-09	5.041327e-04	
848	7.366472e-09	5.122120e-04	
849	7.373276e-09	5.221964e-04	
850	7.381028e-09	5.336887e-04	
851	7.388593e-09	5.498052e-04	
852	7.394678e-09	5.634287e-04	
853	7.401008e-09	5.775299e-04	
854	7.407188e-09	5.950526e-04	
855	7.415774e-09	6.338558e-04	
856	7.421995e-09	6.576830e-04	
857	7.427846e-09	6.913088e-04	
858	7.435414e-09	7.374069e-04	
859	7.443428e-09	7.900495e-04	
860	7.450385e-09	8.386225e-04	
861	7.457603e-09	8.903903e-04	
862	7.463968e-09	9.317842e-04	
863	7.470933e-09	9.751328e-04	
864	7.480292e-09	1.056574e-03	
865	7.481108e-09	1.062773e-03	
866	7.482741e-09	1.076681e-03	

Index   time            v(out)          
--------------------------------------------------------------------------------
867	7.486005e-09	1.097554e-03	
868	7.492535e-09	1.147865e-03	
869	7.500232e-09	1.198492e-03	
870	7.508660e-09	1.246928e-03	
871	7.509821e-09	1.253290e-03	
872	7.512143e-09	1.266803e-03	
873	7.515474e-09	1.279610e-03	
874	7.518895e-09	1.300548e-03	
875	7.525737e-09	1.331801e-03	
876	7.532916e-09	1.357864e-03	
877	7.539910e-09	1.382141e-03	
878	7.545999e-09	1.399145e-03	
879	7.551840e-09	1.422593e-03	
880	7.557862e-09	1.441720e-03	
881	7.565795e-09	1.424118e-03	
882	7.572202e-09	1.423469e-03	
883	7.578534e-09	1.425768e-03	
884	7.584570e-09	1.429336e-03	
885	7.591817e-09	1.430023e-03	
886	7.600732e-09	1.428431e-03	
887	7.606953e-09	1.441500e-03	
888	7.613093e-09	1.449751e-03	
889	7.619822e-09	1.459957e-03	
890	7.627920e-09	1.472502e-03	
891	7.634160e-09	1.492725e-03	
892	7.640036e-09	1.514623e-03	
893	7.647285e-09	1.514706e-03	
894	7.655119e-09	1.612696e-03	
895	7.662272e-09	1.718600e-03	
896	7.669009e-09	1.856541e-03	
897	7.675812e-09	1.962239e-03	
898	7.682118e-09	1.978854e-03	
899	7.690530e-09	2.086409e-03	
900	7.696125e-09	2.132131e-03	
901	7.701762e-09	2.117538e-03	
902	7.708806e-09	2.192290e-03	
903	7.716949e-09	2.243598e-03	
904	7.723812e-09	2.275379e-03	
905	7.730739e-09	2.299784e-03	
906	7.736930e-09	2.318227e-03	
907	7.744009e-09	2.256141e-03	
908	7.753186e-09	2.321958e-03	
909	7.759658e-09	2.333656e-03	
910	7.766136e-09	2.338503e-03	
911	7.773016e-09	2.332983e-03	
912	7.782117e-09	2.323044e-03	
913	7.788454e-09	2.319540e-03	
914	7.794250e-09	2.359048e-03	
915	7.801569e-09	2.181648e-03	
916	7.809209e-09	2.031574e-03	
917	7.815613e-09	1.520156e-03	
918	7.821827e-09	3.130326e-03	
919	7.828056e-09	7.057754e-03	
920	7.835392e-09	5.727030e-03	
921	7.844347e-09	-3.054526e-02	
922	7.850670e-09	-4.723315e-02	
923	7.857080e-09	1.169883e-01	
924	7.863826e-09	4.762241e-01	

Index   time            v(out)          
--------------------------------------------------------------------------------
925	7.872833e-09	1.039780e+00	
926	7.881238e-09	1.503552e+00	
927	7.888961e-09	1.850652e+00	
928	7.897063e-09	1.965589e+00	
929	7.905819e-09	1.968304e+00	
930	7.914270e-09	1.984632e+00	
931	7.920710e-09	1.995613e+00	
932	7.927280e-09	1.991036e+00	
933	7.933965e-09	1.995351e+00	
934	7.943361e-09	1.998868e+00	
935	7.949717e-09	1.998991e+00	
936	7.955615e-09	1.998890e+00	
937	7.962847e-09	1.999396e+00	
938	7.970544e-09	1.999401e+00	
939	7.976827e-09	1.999369e+00	
940	7.982820e-09	1.999397e+00	
941	7.989440e-09	1.999428e+00	
942	7.997013e-09	1.999423e+00	
943	8.006044e-09	1.999423e+00	
944	8.013172e-09	1.999427e+00	
945	8.020405e-09	1.999428e+00	
946	8.027457e-09	1.999428e+00	
947	8.034951e-09	1.999431e+00	
948	8.041253e-09	1.999430e+00	
949	8.047086e-09	1.999432e+00	
950	8.053374e-09	1.999432e+00	
951	8.061364e-09	1.999435e+00	
952	8.067640e-09	1.999436e+00	
953	8.073714e-09	1.999436e+00	
954	8.080187e-09	1.999437e+00	
955	8.087698e-09	1.999441e+00	
956	8.096683e-09	1.999438e+00	
957	8.103417e-09	1.999442e+00	
958	8.110345e-09	1.999443e+00	
959	8.117243e-09	1.999445e+00	
960	8.126798e-09	1.999447e+00	
961	8.133493e-09	1.999447e+00	
962	8.140207e-09	1.999450e+00	
963	8.147315e-09	1.999451e+00	
964	8.156721e-09	1.999451e+00	
965	8.163311e-09	1.999456e+00	
966	8.169685e-09	1.999455e+00	
967	8.176725e-09	1.999457e+00	
968	8.185588e-09	1.999456e+00	
969	8.186670e-09	1.999463e+00	
970	8.188835e-09	1.999453e+00	
971	8.191958e-09	1.999449e+00	
972	8.195177e-09	1.999445e+00	
973	8.201614e-09	1.999443e+00	
974	8.208977e-09	1.999441e+00	
975	8.217996e-09	1.999442e+00	
976	8.224799e-09	1.999438e+00	
977	8.231780e-09	1.999436e+00	
978	8.238717e-09	1.999433e+00	
979	8.247292e-09	1.999432e+00	
980	8.253855e-09	1.999437e+00	
981	8.259875e-09	1.999421e+00	
982	8.266642e-09	1.999414e+00	

Index   time            v(out)          
--------------------------------------------------------------------------------
983	8.274932e-09	1.999405e+00	
984	8.281152e-09	1.999404e+00	
985	8.286926e-09	1.999390e+00	
986	8.294703e-09	1.999379e+00	
987	8.302701e-09	1.999365e+00	
988	8.309574e-09	1.999364e+00	
989	8.316483e-09	1.999343e+00	
990	8.322669e-09	1.999332e+00	
991	8.329766e-09	1.999319e+00	
992	8.338920e-09	1.999314e+00	
993	8.345374e-09	1.999296e+00	
994	8.351904e-09	1.999287e+00	
995	8.358774e-09	1.999279e+00	
996	8.367981e-09	1.999270e+00	
997	8.369053e-09	1.999281e+00	
998	8.371197e-09	1.999274e+00	
999	8.374755e-09	1.999268e+00	
1000	8.378367e-09	1.999265e+00	
1001	8.385592e-09	1.999260e+00	
1002	8.392467e-09	1.999258e+00	
1003	8.399127e-09	1.999256e+00	
1004	8.405243e-09	1.999269e+00	
1005	8.411458e-09	1.999261e+00	
1006	8.417373e-09	1.999261e+00	
1007	8.425845e-09	1.999262e+00	
1008	8.432052e-09	1.999278e+00	
1009	8.437989e-09	1.999268e+00	
1010	8.445013e-09	1.999270e+00	
1011	8.452732e-09	1.999272e+00	
1012	8.460009e-09	1.999287e+00	
1013	8.466240e-09	1.999278e+00	
1014	8.472647e-09	1.999279e+00	
1015	8.478804e-09	1.999279e+00	
1016	8.487686e-09	1.999287e+00	
1017	8.493891e-09	1.999277e+00	
1018	8.499671e-09	1.999271e+00	
1019	8.508222e-09	1.999259e+00	
1020	8.516516e-09	1.999237e+00	
1021	8.523111e-09	1.999208e+00	
1022	8.529387e-09	1.999169e+00	
1023	8.530692e-09	1.999180e+00	
1024	8.533302e-09	1.999196e+00	
1025	8.538522e-09	1.999131e+00	
1026	8.545152e-09	1.999100e+00	
1027	8.551501e-09	1.999095e+00	
1028	8.558164e-09	1.999080e+00	
1029	8.564087e-09	1.999067e+00	
1030	8.570617e-09	1.999057e+00	
1031	8.578755e-09	1.998989e+00	
1032	8.584779e-09	1.998937e+00	
1033	8.590299e-09	1.999646e+00	
1034	8.598219e-09	1.999839e+00	
1035	8.606268e-09	1.997436e+00	
1036	8.613118e-09	1.989327e+00	
1037	8.619931e-09	2.003113e+00	
1038	8.626033e-09	2.063164e+00	
1039	8.633275e-09	2.101765e+00	
1040	8.642303e-09	1.754995e+00	

Index   time            v(out)          
--------------------------------------------------------------------------------
1041	8.648899e-09	1.323362e+00	
1042	8.655713e-09	8.881070e-01	
1043	8.662518e-09	5.409214e-01	
1044	8.674485e-09	1.585439e-01	
1045	8.682728e-09	8.764287e-02	
1046	8.690787e-09	4.728692e-02	
1047	8.692509e-09	3.897567e-02	
1048	8.695952e-09	2.540193e-02	
1049	8.702840e-09	1.217935e-02	
1050	8.709735e-09	6.913241e-03	
1051	8.715969e-09	3.826313e-03	
1052	8.722298e-09	1.645862e-03	
1053	8.728348e-09	1.315225e-03	
1054	8.737105e-09	9.142201e-04	
1055	8.743309e-09	6.788260e-04	
1056	8.749138e-09	5.517089e-04	
1057	8.756777e-09	5.466725e-04	
1058	8.764776e-09	4.996844e-04	
1059	8.771668e-09	4.788420e-04	
1060	8.778741e-09	4.796146e-04	
1061	8.785020e-09	4.793913e-04	
1062	8.792055e-09	4.765874e-04	
1063	8.801324e-09	4.758861e-04	
1064	8.807826e-09	4.763929e-04	
1065	8.814481e-09	4.745550e-04	
1066	8.821407e-09	4.733506e-04	
1067	8.830937e-09	4.714132e-04	
1068	8.832013e-09	4.723226e-04	
1069	8.834165e-09	4.740649e-04	
1070	8.838470e-09	4.752065e-04	
1071	8.843922e-09	4.761893e-04	
1072	8.851661e-09	4.769718e-04	
1073	8.859746e-09	4.787442e-04	
1074	8.865680e-09	4.793649e-04	
1075	8.871223e-09	4.810178e-04	
1076	8.878322e-09	4.828146e-04	
1077	8.886810e-09	4.847016e-04	
1078	8.893614e-09	4.876954e-04	
1079	8.900404e-09	4.906763e-04	
1080	8.906549e-09	4.928732e-04	
1081	8.913860e-09	4.956216e-04	
1082	8.922929e-09	5.001853e-04	
1083	8.929374e-09	5.014919e-04	
1084	8.936092e-09	5.166899e-04	
1085	8.942915e-09	5.291474e-04	
1086	8.951504e-09	5.461366e-04	
1087	8.957160e-09	5.567714e-04	
1088	8.962909e-09	5.731869e-04	
1089	8.969739e-09	5.931305e-04	
1090	8.977797e-09	6.182027e-04	
1091	8.984526e-09	6.459473e-04	
1092	8.991278e-09	6.747957e-04	
1093	8.997386e-09	7.115691e-04	
1094	9.004501e-09	7.593108e-04	
1095	9.013594e-09	8.211693e-04	
1096	9.019963e-09	8.613295e-04	
1097	9.026285e-09	8.970983e-04	
1098	9.033122e-09	9.604779e-04	

Index   time            v(out)          
--------------------------------------------------------------------------------
1099	9.041721e-09	1.029836e-03	
1100	9.047977e-09	1.076960e-03	
1101	9.053719e-09	1.117669e-03	
1102	9.061622e-09	1.169894e-03	
1103	9.069979e-09	1.222001e-03	
1104	9.076601e-09	1.257559e-03	
1105	9.083019e-09	1.290466e-03	
1106	9.089476e-09	1.317158e-03	
1107	9.097052e-09	1.351671e-03	
1108	9.104981e-09	1.380388e-03	
1109	9.111085e-09	1.404635e-03	
1110	9.117405e-09	1.425464e-03	
1111	9.123721e-09	1.405040e-03	
1112	9.132286e-09	1.417001e-03	
1113	9.138498e-09	1.424757e-03	
1114	9.144320e-09	1.428282e-03	
1115	9.151912e-09	1.440684e-03	
1116	9.159872e-09	1.452290e-03	
1117	9.166794e-09	1.458471e-03	
1118	9.174003e-09	1.474308e-03	
1119	9.180357e-09	1.489654e-03	
1120	9.187343e-09	1.508035e-03	
1121	9.196691e-09	1.553276e-03	
1122	9.203216e-09	1.600568e-03	
1123	9.210003e-09	1.667273e-03	
1124	9.216958e-09	1.765608e-03	
1125	9.226503e-09	1.973204e-03	
1126	9.233070e-09	2.064462e-03	
1127	9.239385e-09	2.134128e-03	
1128	9.246492e-09	2.140263e-03	
1129	9.255138e-09	2.248546e-03	
1130	9.256230e-09	2.256543e-03	
1131	9.258413e-09	2.265535e-03	
1132	9.261816e-09	2.263704e-03	
1133	9.265371e-09	2.311944e-03	
1134	9.271938e-09	2.358988e-03	
1135	9.279278e-09	2.359746e-03	
1136	9.287170e-09	2.420072e-03	
1137	9.293440e-09	2.447241e-03	
1138	9.299624e-09	2.467170e-03	
1139	9.306006e-09	2.409695e-03	
1140	9.314478e-09	2.471388e-03	
1141	9.320690e-09	2.483741e-03	
1142	9.326517e-09	2.490317e-03	
1143	9.334022e-09	2.413513e-03	
1144	9.341936e-09	2.451457e-03	
1145	9.348906e-09	2.446802e-03	
1146	9.356328e-09	2.474934e-03	
1147	9.362796e-09	2.485283e-03	
1148	9.369716e-09	2.307217e-03	
1149	9.378119e-09	1.897996e-03	
1150	9.384502e-09	2.434902e-03	
1151	9.390523e-09	5.897530e-03	
1152	9.397155e-09	7.726165e-03	
1153	9.405351e-09	-4.842517e-03	
1154	9.411575e-09	-5.036328e-02	
1155	9.417439e-09	-2.342321e-02	
1156	9.424685e-09	2.567012e-01	

Index   time            v(out)          
--------------------------------------------------------------------------------
1157	9.432329e-09	7.066407e-01	
1158	9.441957e-09	1.287949e+00	
1159	9.450231e-09	1.708806e+00	
1160	9.458251e-09	1.943227e+00	
1161	9.460112e-09	1.952177e+00	
1162	9.463833e-09	1.962938e+00	
1163	9.471277e-09	1.968290e+00	
1164	9.479053e-09	1.984744e+00	
1165	9.485670e-09	1.994794e+00	
1166	9.492415e-09	1.990787e+00	
1167	9.498954e-09	1.995446e+00	
1168	9.507465e-09	1.998624e+00	
1169	9.513057e-09	1.998903e+00	
1170	9.518739e-09	1.998722e+00	
1171	9.525543e-09	1.999343e+00	
1172	9.533851e-09	1.999428e+00	
1173	9.540618e-09	1.999367e+00	
1174	9.547396e-09	1.999389e+00	
1175	9.553562e-09	1.999425e+00	
1176	9.560758e-09	1.999423e+00	
1177	9.569853e-09	1.999420e+00	
1178	9.576265e-09	1.999424e+00	
1179	9.582835e-09	1.999424e+00	
1180	9.589675e-09	1.999430e+00	
1181	9.598949e-09	1.999432e+00	
1182	9.605304e-09	1.999439e+00	
1183	9.611164e-09	1.999427e+00	
1184	9.618359e-09	1.999431e+00	
1185	9.626143e-09	1.999428e+00	
1186	9.632440e-09	1.999432e+00	
1187	9.638467e-09	1.999433e+00	
1188	9.645091e-09	1.999435e+00	
1189	9.652630e-09	1.999437e+00	
1190	9.661690e-09	1.999441e+00	
1191	9.668824e-09	1.999437e+00	
1192	9.676067e-09	1.999439e+00	
1193	9.683143e-09	1.999439e+00	
1194	9.690633e-09	1.999442e+00	
1195	9.696988e-09	1.999445e+00	
1196	9.702850e-09	1.999441e+00	
1197	9.709168e-09	1.999441e+00	
1198	9.717274e-09	1.999442e+00	
1199	9.723517e-09	1.999444e+00	
1200	9.729518e-09	1.999441e+00	
1201	9.736266e-09	1.999442e+00	
1202	9.743849e-09	1.999442e+00	
1203	9.751703e-09	1.999445e+00	
1204	9.757796e-09	1.999448e+00	
1205	9.764162e-09	1.999440e+00	
1206	9.770458e-09	1.999441e+00	
1207	9.779102e-09	1.999439e+00	
1208	9.785293e-09	1.999439e+00	
1209	9.791067e-09	1.999440e+00	
1210	9.798785e-09	1.999435e+00	
1211	9.806758e-09	1.999431e+00	
1212	9.813605e-09	1.999427e+00	
1213	9.820555e-09	1.999428e+00	
1214	9.826757e-09	1.999418e+00	

Index   time            v(out)          
--------------------------------------------------------------------------------
1215	9.833861e-09	1.999413e+00	
1216	9.843036e-09	1.999402e+00	
1217	9.849502e-09	1.999395e+00	
1218	9.856086e-09	1.999394e+00	
1219	9.862978e-09	1.999375e+00	
1220	9.872335e-09	1.999362e+00	
1221	9.878724e-09	1.999350e+00	
1222	9.884669e-09	1.999350e+00	
1223	9.891816e-09	1.999327e+00	
1224	9.899669e-09	1.999316e+00	
1225	9.905906e-09	1.999305e+00	
1226	9.911807e-09	1.999307e+00	
1227	9.918789e-09	1.999286e+00	
1228	9.926345e-09	1.999279e+00	
1229	9.933847e-09	1.999271e+00	
1230	9.939865e-09	1.999280e+00	
1231	9.946136e-09	1.999266e+00	
1232	9.952290e-09	1.999262e+00	
1233	9.960757e-09	1.999259e+00	
1234	9.966943e-09	1.999258e+00	
1235	9.972802e-09	1.999257e+00	
1236	9.979995e-09	1.999265e+00	
1237	9.987703e-09	1.999259e+00	
1238	9.994838e-09	1.999264e+00	
1239	1.000137e-08	1.999261e+00	
1240	1.000801e-08	1.999262e+00	
1241	1.001425e-08	1.999264e+00	
1242	1.002248e-08	1.999275e+00	
1243	1.002861e-08	1.999266e+00	
1244	1.003418e-08	1.999267e+00	
1245	1.004187e-08	1.999266e+00	
1246	1.005020e-08	1.999263e+00	
1247	1.005697e-08	1.999258e+00	
1248	1.006364e-08	1.999251e+00	
1249	1.006983e-08	1.999234e+00	
1250	1.007723e-08	1.999210e+00	
1251	1.008627e-08	1.999159e+00	
1252	1.009294e-08	1.999112e+00	
1253	1.009983e-08	1.999081e+00	
1254	1.010674e-08	1.999061e+00	
1255	1.011629e-08	1.999038e+00	
1256	1.012298e-08	1.999028e+00	
1257	1.012956e-08	1.999019e+00	
1258	1.013669e-08	1.998976e+00	
1259	1.014610e-08	1.998916e+00	
1260	1.014719e-08	1.998870e+00	
1261	1.014937e-08	1.998960e+00	
1262	1.015372e-08	1.999462e+00	
1263	1.015979e-08	1.999827e+00	
1264	1.016801e-08	1.998669e+00	
1265	1.017623e-08	1.992315e+00	
1266	1.018235e-08	1.992064e+00	
1267	1.018840e-08	2.034355e+00	
1268	1.019484e-08	2.100343e+00	
1269	1.020292e-08	2.032699e+00	
1270	1.020912e-08	1.627544e+00	
1271	1.021503e-08	1.240589e+00	
1272	1.022287e-08	7.685883e-01	

Index   time            v(out)          
--------------------------------------------------------------------------------
1273	1.023013e-08	4.260505e-01	
1274	1.024157e-08	1.240604e-01	
1275	1.024893e-08	8.341973e-02	
1276	1.025581e-08	4.603129e-02	
1277	1.025724e-08	3.949809e-02	
1278	1.026010e-08	2.819765e-02	
1279	1.026583e-08	1.528053e-02	
1280	1.027289e-08	8.184086e-03	
1281	1.027813e-08	5.393097e-03	
1282	1.028331e-08	2.763873e-03	
1283	1.028959e-08	1.580440e-03	
1284	1.029789e-08	1.126856e-03	
1285	1.030536e-08	8.060278e-04	
1286	1.031196e-08	5.968471e-04	
1287	1.031870e-08	5.465733e-04	
1288	1.032508e-08	5.351626e-04	
1289	1.033346e-08	4.835876e-04	
1290	1.033903e-08	4.830267e-04	
1291	1.034463e-08	4.812627e-04	
1292	1.035173e-08	4.816590e-04	
1293	1.036038e-08	4.751997e-04	
1294	1.036726e-08	4.774168e-04	
1295	1.037414e-08	4.738136e-04	
1296	1.038036e-08	4.713795e-04	
1297	1.038770e-08	4.741232e-04	
1298	1.039684e-08	4.717975e-04	
1299	1.040365e-08	4.739007e-04	
1300	1.041064e-08	4.740359e-04	
1301	1.041764e-08	4.739454e-04	
1302	1.042621e-08	4.739573e-04	
1303	1.043282e-08	4.768321e-04	
1304	1.043885e-08	4.817278e-04	
1305	1.044565e-08	4.802673e-04	
1306	1.045404e-08	4.827193e-04	
1307	1.046025e-08	4.839998e-04	
1308	1.046600e-08	4.884806e-04	
1309	1.047456e-08	4.947126e-04	
1310	1.048237e-08	5.009764e-04	
1311	1.048908e-08	5.057415e-04	
1312	1.049559e-08	5.101708e-04	
1313	1.050181e-08	5.135887e-04	
1314	1.050915e-08	5.170490e-04	
1315	1.051819e-08	5.452606e-04	
1316	1.052460e-08	5.620371e-04	
1317	1.053130e-08	5.813533e-04	
1318	1.053811e-08	6.028372e-04	
1319	1.054668e-08	6.334073e-04	
1320	1.055232e-08	6.535858e-04	
1321	1.055803e-08	6.840438e-04	
1322	1.056492e-08	7.266363e-04	
1323	1.057331e-08	7.806938e-04	
1324	1.058006e-08	8.268012e-04	
1325	1.058680e-08	8.745364e-04	
1326	1.059300e-08	9.178754e-04	
1327	1.060025e-08	9.751710e-04	
1328	1.060936e-08	1.043227e-03	
1329	1.061578e-08	1.089161e-03	
1330	1.062248e-08	1.131853e-03	

Index   time            v(out)          
--------------------------------------------------------------------------------
1331	1.062933e-08	1.178890e-03	
1332	1.063791e-08	1.229839e-03	
1333	1.064355e-08	1.261685e-03	
1334	1.064928e-08	1.280523e-03	
1335	1.065612e-08	1.304528e-03	
1336	1.066444e-08	1.335131e-03	
1337	1.067118e-08	1.350255e-03	
1338	1.067791e-08	1.374120e-03	
1339	1.068411e-08	1.385918e-03	
1340	1.069132e-08	1.402040e-03	
1341	1.070044e-08	1.416755e-03	
1342	1.070685e-08	1.418442e-03	
1343	1.071346e-08	1.442156e-03	
1344	1.072031e-08	1.457007e-03	
1345	1.072968e-08	1.477658e-03	
1346	1.073607e-08	1.488672e-03	
1347	1.074200e-08	1.510433e-03	
1348	1.074918e-08	1.541360e-03	
1349	1.075707e-08	1.588898e-03	
1350	1.076333e-08	1.643309e-03	
1351	1.076927e-08	1.704535e-03	
1352	1.077620e-08	1.834684e-03	
1353	1.078374e-08	2.005435e-03	
1354	1.079136e-08	2.118530e-03	
1355	1.079738e-08	2.189336e-03	
1356	1.080366e-08	2.251907e-03	
1357	1.080985e-08	2.247423e-03	
1358	1.081835e-08	2.356155e-03	
1359	1.082453e-08	2.404956e-03	
1360	1.083039e-08	2.379232e-03	
1361	1.083760e-08	2.464725e-03	
1362	1.084530e-08	2.515941e-03	
1363	1.085243e-08	2.550250e-03	
1364	1.085897e-08	2.573012e-03	
1365	1.086561e-08	2.594066e-03	
1366	1.087185e-08	2.517301e-03	
1367	1.088008e-08	2.583446e-03	
1368	1.088621e-08	2.595747e-03	
1369	1.089179e-08	2.601827e-03	
1370	1.089955e-08	2.523318e-03	
1371	1.090777e-08	2.560067e-03	
1372	1.091455e-08	2.551341e-03	
1373	1.092126e-08	2.584219e-03	
1374	1.092746e-08	2.585394e-03	
1375	1.093478e-08	2.407570e-03	
1376	1.094387e-08	1.958019e-03	
1377	1.095042e-08	2.846171e-03	
1378	1.095722e-08	7.058304e-03	
1379	1.096410e-08	6.828019e-03	
1380	1.097367e-08	-2.796129e-02	
1381	1.098024e-08	-4.866975e-02	
1382	1.098656e-08	1.053368e-01	
1383	1.099371e-08	4.829440e-01	
1384	1.100278e-08	1.051184e+00	
1385	1.101134e-08	1.520680e+00	
1386	1.101923e-08	1.866654e+00	
1387	1.102745e-08	1.966307e+00	
1388	1.103585e-08	1.967830e+00	

Index   time            v(out)          
--------------------------------------------------------------------------------
1389	1.104366e-08	1.984022e+00	
1390	1.104980e-08	1.994689e+00	
1391	1.105626e-08	1.990747e+00	
1392	1.106264e-08	1.994571e+00	
1393	1.107152e-08	1.998457e+00	
1394	1.107756e-08	1.998912e+00	
1395	1.108319e-08	1.998638e+00	
1396	1.109132e-08	1.999378e+00	
1397	1.109943e-08	1.999434e+00	
1398	1.110811e-08	1.999354e+00	
1399	1.111655e-08	1.999409e+00	
1400	1.111777e-08	1.999413e+00	
1401	1.112021e-08	1.999424e+00	
1402	1.112509e-08	1.999424e+00	
1403	1.113199e-08	1.999416e+00	
1404	1.113710e-08	1.999422e+00	
1405	1.114209e-08	1.999425e+00	
1406	1.114947e-08	1.999427e+00	
1407	1.115621e-08	1.999428e+00	
1408	1.116577e-08	1.999429e+00	
1409	1.117246e-08	1.999430e+00	
1410	1.117940e-08	1.999429e+00	
1411	1.118652e-08	1.999430e+00	
1412	1.119601e-08	1.999432e+00	
1413	1.120268e-08	1.999436e+00	
1414	1.120952e-08	1.999434e+00	
1415	1.121661e-08	1.999435e+00	
1416	1.122608e-08	1.999435e+00	
1417	1.123278e-08	1.999439e+00	
1418	1.123934e-08	1.999437e+00	
1419	1.124646e-08	1.999438e+00	
1420	1.125590e-08	1.999439e+00	
1421	1.126240e-08	1.999442e+00	
1422	1.126860e-08	1.999440e+00	
1423	1.127569e-08	1.999440e+00	
1424	1.128406e-08	1.999441e+00	
1425	1.129028e-08	1.999444e+00	
1426	1.129598e-08	1.999442e+00	
1427	1.130394e-08	1.999442e+00	
1428	1.131207e-08	1.999442e+00	
1429	1.131878e-08	1.999444e+00	
1430	1.132535e-08	1.999442e+00	
1431	1.133160e-08	1.999441e+00	
1432	1.133898e-08	1.999440e+00	
1433	1.134803e-08	1.999442e+00	
1434	1.135467e-08	1.999437e+00	
1435	1.136154e-08	1.999436e+00	
1436	1.136845e-08	1.999433e+00	
1437	1.137802e-08	1.999432e+00	
1438	1.138468e-08	1.999425e+00	
1439	1.139120e-08	1.999420e+00	
1440	1.139834e-08	1.999414e+00	
1441	1.140771e-08	1.999410e+00	
1442	1.141417e-08	1.999398e+00	
1443	1.142026e-08	1.999390e+00	
1444	1.142734e-08	1.999380e+00	
1445	1.143550e-08	1.999374e+00	
1446	1.144170e-08	1.999359e+00	

Index   time            v(out)          
--------------------------------------------------------------------------------
1447	1.144746e-08	1.999348e+00	
1448	1.145489e-08	1.999335e+00	
1449	1.146264e-08	1.999330e+00	
1450	1.146963e-08	1.999312e+00	
1451	1.147740e-08	1.999300e+00	
1452	1.148467e-08	1.999290e+00	
1453	1.149131e-08	1.999282e+00	
1454	1.149866e-08	1.999285e+00	
1455	1.150489e-08	1.999272e+00	
1456	1.151050e-08	1.999267e+00	
1457	1.151678e-08	1.999263e+00	
1458	1.152470e-08	1.999269e+00	
1459	1.153113e-08	1.999259e+00	
1460	1.153750e-08	1.999258e+00	
1461	1.154369e-08	1.999256e+00	
1462	1.155085e-08	1.999265e+00	
1463	1.155989e-08	1.999256e+00	
1464	1.156620e-08	1.999257e+00	
1465	1.157251e-08	1.999258e+00	
1466	1.157933e-08	1.999268e+00	
1467	1.158786e-08	1.999259e+00	
1468	1.159407e-08	1.999259e+00	
1469	1.159978e-08	1.999258e+00	
1470	1.160782e-08	1.999264e+00	
1471	1.161597e-08	1.999248e+00	
1472	1.162266e-08	1.999239e+00	
1473	1.162917e-08	1.999224e+00	
1474	1.163549e-08	1.999203e+00	
1475	1.164292e-08	1.999166e+00	
1476	1.165199e-08	1.999096e+00	
1477	1.165887e-08	1.999065e+00	
1478	1.166591e-08	1.999043e+00	
1479	1.167291e-08	1.999023e+00	
1480	1.168125e-08	1.999011e+00	
1481	1.168782e-08	1.998993e+00	
1482	1.169382e-08	1.998987e+00	
1483	1.170053e-08	1.998940e+00	
1484	1.170889e-08	1.998901e+00	
1485	1.171507e-08	1.998818e+00	
1486	1.172083e-08	1.999451e+00	
1487	1.172836e-08	1.999629e+00	
1488	1.173617e-08	1.997693e+00	
1489	1.174311e-08	1.989887e+00	
1490	1.175059e-08	2.002035e+00	
1491	1.175709e-08	2.067925e+00	
1492	1.176402e-08	2.106791e+00	
1493	1.177204e-08	1.838268e+00	
1494	1.177846e-08	1.395549e+00	
1495	1.178451e-08	9.875138e-01	
1496	1.179101e-08	6.396425e-01	
1497	1.180062e-08	2.669445e-01	
1498	1.180949e-08	1.085731e-01	
1499	1.181646e-08	7.743014e-02	
1500	1.182277e-08	3.995961e-02	
1501	1.183014e-08	1.693541e-02	
1502	1.183891e-08	7.796638e-03	
1503	1.184519e-08	4.769098e-03	
1504	1.185087e-08	2.024116e-03	

Index   time            v(out)          
--------------------------------------------------------------------------------
1505	1.185801e-08	1.335803e-03	
1506	1.186607e-08	1.018366e-03	
1507	1.187252e-08	7.356548e-04	
1508	1.187882e-08	5.730301e-04	
1509	1.188517e-08	5.531752e-04	
1510	1.189253e-08	5.256102e-04	
1511	1.190160e-08	4.801479e-04	
1512	1.190808e-08	4.826897e-04	
1513	1.191483e-08	4.818252e-04	
1514	1.192169e-08	4.800953e-04	
1515	1.193026e-08	4.764057e-04	
1516	1.193583e-08	4.777005e-04	
1517	1.194161e-08	4.774000e-04	
1518	1.194831e-08	4.774390e-04	
1519	1.195675e-08	4.768629e-04	
1520	1.196256e-08	4.763977e-04	
1521	1.196979e-08	4.748687e-04	
1522	1.197594e-08	4.728407e-04	
1523	1.198266e-08	4.773370e-04	
1524	1.199114e-08	4.794457e-04	
1525	1.199224e-08	4.796876e-04	
1526	1.199445e-08	4.800310e-04	
1527	1.199773e-08	4.803482e-04	
1528	1.200111e-08	4.803397e-04	
1529	1.200785e-08	4.820600e-04	
1530	1.201531e-08	4.840078e-04	
1531	1.202230e-08	4.862156e-04	
1532	1.202836e-08	4.874485e-04	
1533	1.203442e-08	4.884473e-04	
1534	1.204045e-08	4.891105e-04	
1535	1.204878e-08	4.912224e-04	
1536	1.205505e-08	5.026520e-04	
1537	1.206112e-08	5.109585e-04	
1538	1.206783e-08	5.203157e-04	
1539	1.207536e-08	5.306364e-04	
1540	1.208333e-08	5.419076e-04	
1541	1.208944e-08	5.487799e-04	
1542	1.209580e-08	5.723042e-04	
1543	1.210216e-08	5.938191e-04	
1544	1.211087e-08	6.267178e-04	
1545	1.211705e-08	6.535947e-04	
1546	1.212282e-08	6.807087e-04	
1547	1.213051e-08	7.208496e-04	
1548	1.213842e-08	7.667243e-04	
1549	1.214527e-08	8.077673e-04	
1550	1.215234e-08	8.600872e-04	
1551	1.215860e-08	9.100057e-04	
1552	1.216567e-08	9.635990e-04	
1553	1.217494e-08	1.032338e-03	
1554	1.218144e-08	1.073250e-03	
1555	1.218815e-08	1.122796e-03	
1556	1.219509e-08	1.167847e-03	
1557	1.220465e-08	1.222704e-03	
1558	1.221116e-08	1.254900e-03	
1559	1.221737e-08	1.283655e-03	
1560	1.222452e-08	1.310520e-03	
1561	1.223292e-08	1.346080e-03	
1562	1.223915e-08	1.369821e-03	

Index   time            v(out)          
--------------------------------------------------------------------------------
1563	1.224485e-08	1.392356e-03	
1564	1.225277e-08	1.414544e-03	
1565	1.226091e-08	1.422177e-03	
1566	1.226763e-08	1.433610e-03	
1567	1.227422e-08	1.444844e-03	
1568	1.228048e-08	1.454529e-03	
1569	1.228784e-08	1.464601e-03	
1570	1.229693e-08	1.500161e-03	
1571	1.230358e-08	1.522939e-03	
1572	1.231045e-08	1.554911e-03	
1573	1.231738e-08	1.599242e-03	
1574	1.232695e-08	1.689827e-03	
1575	1.233361e-08	1.797120e-03	
1576	1.234013e-08	1.947598e-03	
1577	1.234728e-08	2.085917e-03	
1578	1.235664e-08	2.213154e-03	
1579	1.236309e-08	2.282972e-03	
1580	1.236916e-08	2.342001e-03	
1581	1.237626e-08	2.404554e-03	
1582	1.238443e-08	2.470488e-03	
1583	1.239063e-08	2.517093e-03	
1584	1.239641e-08	2.556379e-03	
1585	1.240370e-08	2.535642e-03	
1586	1.241140e-08	2.606674e-03	
1587	1.241847e-08	2.641915e-03	
1588	1.242524e-08	2.666805e-03	
1589	1.243207e-08	2.683848e-03	
1590	1.243839e-08	2.694029e-03	
1591	1.244685e-08	2.612658e-03	
1592	1.245242e-08	2.658707e-03	
1593	1.245806e-08	2.675722e-03	
1594	1.246495e-08	2.620196e-03	
1595	1.247380e-08	2.649819e-03	
1596	1.248060e-08	2.636361e-03	
1597	1.248736e-08	2.668516e-03	
1598	1.249365e-08	2.666004e-03	
1599	1.250110e-08	2.478561e-03	
1600	1.250925e-08	2.035127e-03	
1601	1.251549e-08	2.535847e-03	
1602	1.252181e-08	6.315458e-03	
1603	1.252828e-08	8.131920e-03	
1604	1.253699e-08	-7.631303e-03	
1605	1.254320e-08	-5.385097e-02	
1606	1.254896e-08	-1.444778e-02	
1607	1.255748e-08	3.468305e-01	
1608	1.256522e-08	8.192296e-01	
1609	1.257643e-08	1.455296e+00	
1610	1.258496e-08	1.845957e+00	
1611	1.259315e-08	1.963729e+00	
1612	1.260374e-08	1.967133e+00	
1613	1.261135e-08	1.990089e+00	
1614	1.261937e-08	1.994427e+00	
1615	1.262645e-08	1.991661e+00	
1616	1.263406e-08	1.997784e+00	
1617	1.264054e-08	1.998685e+00	
1618	1.264816e-08	1.998828e+00	
1619	1.265459e-08	1.999103e+00	
1620	1.266128e-08	1.999451e+00	

Index   time            v(out)          
--------------------------------------------------------------------------------
1621	1.267091e-08	1.999315e+00	
1622	1.267761e-08	1.999379e+00	
1623	1.268430e-08	1.999406e+00	
1624	1.269148e-08	1.999432e+00	
1625	1.270091e-08	1.999413e+00	
1626	1.270750e-08	1.999423e+00	
1627	1.271388e-08	1.999425e+00	
1628	1.272098e-08	1.999426e+00	
1629	1.272989e-08	1.999429e+00	
1630	1.273621e-08	1.999434e+00	
1631	1.274194e-08	1.999429e+00	
1632	1.274918e-08	1.999431e+00	
1633	1.275731e-08	1.999432e+00	
1634	1.276382e-08	1.999435e+00	
1635	1.277014e-08	1.999437e+00	
1636	1.277675e-08	1.999436e+00	
1637	1.278428e-08	1.999436e+00	
1638	1.279346e-08	1.999435e+00	
1639	1.280105e-08	1.999438e+00	
1640	1.280872e-08	1.999437e+00	
1641	1.281600e-08	1.999438e+00	
1642	1.282437e-08	1.999440e+00	
1643	1.283290e-08	1.999441e+00	
1644	1.283995e-08	1.999446e+00	
1645	1.284793e-08	1.999439e+00	
1646	1.285345e-08	1.999442e+00	
1647	1.286063e-08	1.999442e+00	
1648	1.286657e-08	1.999443e+00	
1649	1.287316e-08	1.999444e+00	
1650	1.288136e-08	1.999443e+00	
1651	1.288993e-08	1.999443e+00	
1652	1.289769e-08	1.999443e+00	
1653	1.290678e-08	1.999446e+00	
1654	1.291409e-08	1.999442e+00	
1655	1.292035e-08	1.999438e+00	
1656	1.292686e-08	1.999439e+00	
1657	1.293307e-08	1.999434e+00	
1658	1.294227e-08	1.999431e+00	
1659	1.294757e-08	1.999429e+00	
1660	1.295351e-08	1.999432e+00	
1661	1.296121e-08	1.999419e+00	
1662	1.296926e-08	1.999412e+00	
1663	1.297502e-08	1.999405e+00	
1664	1.298267e-08	1.999396e+00	
1665	1.298926e-08	1.999394e+00	
1666	1.299573e-08	1.999379e+00	
1667	1.300430e-08	1.999366e+00	
1668	1.301343e-08	1.999351e+00	
1669	1.302180e-08	1.999349e+00	
1670	1.303101e-08	1.999321e+00	
1671	1.303710e-08	1.999312e+00	
1672	1.304386e-08	1.999303e+00	
1673	1.305019e-08	1.999302e+00	
1674	1.305741e-08	1.999286e+00	
1675	1.306659e-08	1.999276e+00	
1676	1.307314e-08	1.999270e+00	
1677	1.307998e-08	1.999266e+00	
1678	1.308691e-08	1.999271e+00	

Index   time            v(out)          
--------------------------------------------------------------------------------
1679	1.309648e-08	1.999258e+00	
1680	1.310260e-08	1.999257e+00	
1681	1.310911e-08	1.999255e+00	
1682	1.311606e-08	1.999264e+00	
1683	1.312470e-08	1.999253e+00	
1684	1.312983e-08	1.999254e+00	
1685	1.313570e-08	1.999253e+00	
1686	1.314316e-08	1.999262e+00	
1687	1.315086e-08	1.999253e+00	
1688	1.315719e-08	1.999253e+00	
1689	1.316569e-08	1.999250e+00	
1690	1.317272e-08	1.999246e+00	
1691	1.317963e-08	1.999252e+00	
1692	1.318710e-08	1.999228e+00	
1693	1.319286e-08	1.999213e+00	
1694	1.319873e-08	1.999191e+00	
1695	1.320483e-08	1.999159e+00	
1696	1.321287e-08	1.999099e+00	
1697	1.321853e-08	1.999065e+00	
1698	1.322543e-08	1.999038e+00	
1699	1.323145e-08	1.999017e+00	
1700	1.323812e-08	1.998998e+00	
1701	1.324629e-08	1.998976e+00	
1702	1.325295e-08	1.998972e+00	
1703	1.325909e-08	1.998965e+00	
1704	1.326603e-08	1.998942e+00	
1705	1.327455e-08	1.998882e+00	
1706	1.327989e-08	1.998759e+00	
1707	1.328639e-08	1.999241e+00	
1708	1.329261e-08	1.999727e+00	
1709	1.329961e-08	1.998825e+00	
1710	1.330878e-08	1.992604e+00	
1711	1.331751e-08	2.000764e+00	
1712	1.332596e-08	2.085762e+00	
1713	1.333507e-08	2.050766e+00	
1714	1.334147e-08	1.668294e+00	
1715	1.334806e-08	1.230115e+00	
1716	1.335502e-08	8.026966e-01	
1717	1.336228e-08	4.529649e-01	
1718	1.337253e-08	1.573159e-01	
1719	1.337844e-08	1.030207e-01	
1720	1.338620e-08	6.297894e-02	
1721	1.339291e-08	2.772008e-02	
1722	1.340062e-08	1.230308e-02	
1723	1.340731e-08	7.654419e-03	
1724	1.341474e-08	3.742145e-03	
1725	1.342165e-08	1.371547e-03	
1726	1.342788e-08	1.372427e-03	
1727	1.343634e-08	8.908345e-04	
1728	1.344435e-08	6.376942e-04	
1729	1.345206e-08	5.256515e-04	
1730	1.346089e-08	5.485728e-04	
1731	1.346848e-08	4.661959e-04	
1732	1.347822e-08	4.900214e-04	
1733	1.348738e-08	4.798020e-04	
1734	1.349626e-08	4.773012e-04	
1735	1.350139e-08	4.759025e-04	
1736	1.350762e-08	4.775855e-04	

Index   time            v(out)          
--------------------------------------------------------------------------------
1737	1.351471e-08	4.759435e-04	
1738	1.352207e-08	4.772282e-04	
1739	1.352936e-08	4.776017e-04	
1740	1.353674e-08	4.777471e-04	
1741	1.354348e-08	4.782283e-04	
1742	1.354986e-08	4.782510e-04	
1743	1.355811e-08	4.794168e-04	
1744	1.356352e-08	4.791414e-04	
1745	1.356911e-08	4.813198e-04	
1746	1.357599e-08	4.825771e-04	
1747	1.358435e-08	4.846145e-04	
1748	1.359148e-08	4.880397e-04	
1749	1.359873e-08	4.906222e-04	
1750	1.360519e-08	4.928238e-04	
1751	1.361235e-08	4.973501e-04	
1752	1.362044e-08	5.044222e-04	
1753	1.362708e-08	5.112202e-04	
1754	1.363315e-08	5.162967e-04	
1755	1.363980e-08	5.215651e-04	
1756	1.364845e-08	5.306392e-04	
1757	1.365700e-08	5.549584e-04	
1758	1.366599e-08	5.783556e-04	
1759	1.367441e-08	6.040875e-04	
1760	1.368301e-08	6.341907e-04	
1761	1.369288e-08	6.897908e-04	
1762	1.369431e-08	6.970521e-04	
1763	1.369717e-08	7.133081e-04	
1764	1.370289e-08	7.430972e-04	
1765	1.370962e-08	7.903317e-04	
1766	1.371499e-08	8.280828e-04	
1767	1.371995e-08	8.611015e-04	
1768	1.372693e-08	9.069724e-04	
1769	1.373391e-08	9.650606e-04	
1770	1.374322e-08	1.034120e-03	
1771	1.374986e-08	1.081152e-03	
1772	1.375674e-08	1.127617e-03	
1773	1.376377e-08	1.172335e-03	
1774	1.377330e-08	1.223930e-03	
1775	1.377998e-08	1.256184e-03	
1776	1.378657e-08	1.285852e-03	
1777	1.379372e-08	1.312066e-03	
1778	1.380320e-08	1.351774e-03	
1779	1.380972e-08	1.369211e-03	
1780	1.381595e-08	1.386406e-03	
1781	1.382308e-08	1.401474e-03	
1782	1.383159e-08	1.425399e-03	
1783	1.383782e-08	1.440780e-03	
1784	1.384352e-08	1.451020e-03	
1785	1.385138e-08	1.476725e-03	
1786	1.385957e-08	1.499833e-03	
1787	1.386626e-08	1.524213e-03	
1788	1.387280e-08	1.554978e-03	
1789	1.387913e-08	1.593152e-03	
1790	1.388652e-08	1.654191e-03	
1791	1.389563e-08	1.785325e-03	
1792	1.390242e-08	1.940724e-03	
1793	1.390941e-08	2.087633e-03	
1794	1.391641e-08	2.192509e-03	

Index   time            v(out)          
--------------------------------------------------------------------------------
1795	1.392598e-08	2.308214e-03	
1796	1.393270e-08	2.376901e-03	
1797	1.393962e-08	2.444183e-03	
1798	1.394676e-08	2.509338e-03	
1799	1.395625e-08	2.574611e-03	
1800	1.396296e-08	2.613372e-03	
1801	1.396973e-08	2.652996e-03	
1802	1.397686e-08	2.688966e-03	
1803	1.398633e-08	2.724871e-03	
1804	1.399299e-08	2.747954e-03	
1805	1.399946e-08	2.757360e-03	
1806	1.400659e-08	2.682505e-03	
1807	1.401586e-08	2.748671e-03	
1808	1.402226e-08	2.755099e-03	
1809	1.402821e-08	2.755908e-03	
1810	1.403535e-08	2.744393e-03	
1811	1.404343e-08	2.727210e-03	
1812	1.404968e-08	2.703526e-03	
1813	1.405560e-08	2.740175e-03	
1814	1.406265e-08	2.714797e-03	
1815	1.407015e-08	2.515075e-03	
1816	1.407748e-08	2.063111e-03	
1817	1.408349e-08	2.561589e-03	
1818	1.408974e-08	6.079850e-03	
1819	1.409587e-08	8.473552e-03	
1820	1.410443e-08	-3.508008e-03	
1821	1.411063e-08	-5.038176e-02	
1822	1.411654e-08	-3.126617e-02	
1823	1.412365e-08	2.323598e-01	
1824	1.413115e-08	6.689630e-01	
1825	1.414080e-08	1.256594e+00	
1826	1.414909e-08	1.685309e+00	
1827	1.415721e-08	1.936260e+00	
1828	1.416596e-08	1.969672e+00	
1829	1.417596e-08	1.973278e+00	
1830	1.418241e-08	1.994929e+00	
1831	1.418853e-08	1.991400e+00	
1832	1.419764e-08	1.994002e+00	
1833	1.420603e-08	1.998527e+00	
1834	1.421236e-08	1.998939e+00	
1835	1.421813e-08	1.998609e+00	
1836	1.422574e-08	1.999325e+00	
1837	1.423358e-08	1.999450e+00	
1838	1.424042e-08	1.999351e+00	
1839	1.424765e-08	1.999376e+00	
1840	1.425399e-08	1.999421e+00	
1841	1.426103e-08	1.999424e+00	
1842	1.427039e-08	1.999415e+00	
1843	1.427707e-08	1.999423e+00	
1844	1.428397e-08	1.999422e+00	
1845	1.429103e-08	1.999426e+00	
1846	1.430056e-08	1.999426e+00	
1847	1.430728e-08	1.999428e+00	
1848	1.431394e-08	1.999428e+00	
1849	1.432111e-08	1.999432e+00	
1850	1.433057e-08	1.999434e+00	
1851	1.433716e-08	1.999441e+00	
1852	1.434353e-08	1.999432e+00	

Index   time            v(out)          
--------------------------------------------------------------------------------
1853	1.435066e-08	1.999434e+00	
1854	1.435956e-08	1.999432e+00	
1855	1.436586e-08	1.999432e+00	
1856	1.437159e-08	1.999432e+00	
1857	1.437887e-08	1.999431e+00	
1858	1.438719e-08	1.999439e+00	
1859	1.439364e-08	1.999438e+00	
1860	1.439989e-08	1.999439e+00	
1861	1.440655e-08	1.999440e+00	
1862	1.441410e-08	1.999442e+00	
1863	1.442199e-08	1.999445e+00	
1864	1.442812e-08	1.999441e+00	
1865	1.443450e-08	1.999442e+00	
1866	1.444086e-08	1.999442e+00	
1867	1.444970e-08	1.999444e+00	
1868	1.445590e-08	1.999448e+00	
1869	1.446166e-08	1.999443e+00	
1870	1.447016e-08	1.999443e+00	
1871	1.447797e-08	1.999441e+00	
1872	1.448475e-08	1.999442e+00	
1873	1.449130e-08	1.999438e+00	
1874	1.449783e-08	1.999435e+00	
1875	1.450531e-08	1.999433e+00	
1876	1.451322e-08	1.999433e+00	
1877	1.452022e-08	1.999425e+00	
1878	1.452654e-08	1.999422e+00	
1879	1.453322e-08	1.999417e+00	
1880	1.454157e-08	1.999410e+00	
1881	1.455029e-08	1.999409e+00	
1882	1.455817e-08	1.999389e+00	
1883	1.456721e-08	1.999376e+00	
1884	1.457435e-08	1.999363e+00	
1885	1.458377e-08	1.999347e+00	
1886	1.459290e-08	1.999342e+00	
1887	1.460148e-08	1.999314e+00	
1888	1.460658e-08	1.999311e+00	
1889	1.461293e-08	1.999303e+00	
1890	1.461988e-08	1.999295e+00	
1891	1.462697e-08	1.999296e+00	
1892	1.463507e-08	1.999279e+00	
1893	1.464164e-08	1.999272e+00	
1894	1.464775e-08	1.999266e+00	
1895	1.465437e-08	1.999271e+00	
1896	1.466306e-08	1.999257e+00	
1897	1.466819e-08	1.999256e+00	
1898	1.467409e-08	1.999255e+00	
1899	1.468120e-08	1.999262e+00	
1900	1.468855e-08	1.999252e+00	
1901	1.469604e-08	1.999252e+00	
1902	1.470518e-08	1.999251e+00	
1903	1.471360e-08	1.999266e+00	
1904	1.472166e-08	1.999250e+00	
1905	1.472700e-08	1.999248e+00	
1906	1.473421e-08	1.999243e+00	
1907	1.474081e-08	1.999238e+00	
1908	1.474721e-08	1.999241e+00	
1909	1.475570e-08	1.999212e+00	
1910	1.476465e-08	1.999186e+00	

Index   time            v(out)          
--------------------------------------------------------------------------------
1911	1.477278e-08	1.999132e+00	
1912	1.478199e-08	1.999059e+00	
1913	1.478801e-08	1.999038e+00	
1914	1.479604e-08	1.999007e+00	
1915	1.480360e-08	1.998985e+00	
1916	1.481094e-08	1.998963e+00	
1917	1.481720e-08	1.998947e+00	
1918	1.482505e-08	1.998933e+00	
1919	1.483224e-08	1.998923e+00	
1920	1.483913e-08	1.998865e+00	
1921	1.484752e-08	1.998815e+00	
1922	1.485298e-08	1.998874e+00	
1923	1.485897e-08	1.999571e+00	
1924	1.486534e-08	1.999692e+00	
1925	1.487356e-08	1.997266e+00	
1926	1.487928e-08	1.989524e+00	
1927	1.488628e-08	1.998073e+00	
1928	1.489229e-08	2.054992e+00	
1929	1.489906e-08	2.110744e+00	
1930	1.490733e-08	1.933833e+00	
1931	1.491261e-08	1.547918e+00	
1932	1.491843e-08	1.156858e+00	
1933	1.492493e-08	7.705891e-01	
1934	1.493243e-08	4.193427e-01	
1935	1.494279e-08	1.419974e-01	
1936	1.494986e-08	9.212871e-02	
1937	1.495653e-08	5.548698e-02	
1938	1.495797e-08	4.784919e-02	
1939	1.496086e-08	3.419489e-02	
1940	1.496663e-08	1.817178e-02	
1941	1.497279e-08	1.046024e-02	
1942	1.497866e-08	6.612671e-03	
1943	1.498396e-08	3.634548e-03	
1944	1.499045e-08	1.756446e-03	
1945	1.499730e-08	1.343329e-03	
1946	1.500648e-08	9.174584e-04	
1947	1.501262e-08	6.747656e-04	
1948	1.501867e-08	5.452543e-04	
1949	1.502563e-08	5.692364e-04	
1950	1.503378e-08	4.968148e-04	
1951	1.504004e-08	4.832547e-04	
1952	1.504600e-08	4.832275e-04	
1953	1.505299e-08	4.849411e-04	
1954	1.506043e-08	4.766985e-04	
1955	1.506802e-08	4.814906e-04	
1956	1.507407e-08	4.810436e-04	
1957	1.508034e-08	4.798214e-04	
1958	1.508658e-08	4.785383e-04	
1959	1.509522e-08	4.754247e-04	
1960	1.510141e-08	4.772341e-04	
1961	1.510726e-08	4.771835e-04	
1962	1.511445e-08	4.774469e-04	
1963	1.512208e-08	4.770836e-04	
1964	1.512915e-08	4.762606e-04	
1965	1.513564e-08	4.750483e-04	
1966	1.514224e-08	4.792560e-04	
1967	1.514848e-08	4.822133e-04	
1968	1.515674e-08	4.848645e-04	

Index   time            v(out)          
--------------------------------------------------------------------------------
1969	1.516285e-08	4.883409e-04	
1970	1.516843e-08	4.907289e-04	
1971	1.517636e-08	4.943544e-04	
1972	1.518412e-08	4.994089e-04	
1973	1.519093e-08	5.038067e-04	
1974	1.519796e-08	5.080442e-04	
1975	1.520430e-08	5.135828e-04	
1976	1.521138e-08	5.186923e-04	
1977	1.522069e-08	5.425668e-04	
1978	1.522725e-08	5.579450e-04	
1979	1.523408e-08	5.743005e-04	
1980	1.524108e-08	5.973286e-04	
1981	1.525067e-08	6.308039e-04	
1982	1.525729e-08	6.620483e-04	
1983	1.526371e-08	6.953870e-04	
1984	1.527090e-08	7.363739e-04	
1985	1.527997e-08	7.910575e-04	
1986	1.528633e-08	8.334318e-04	
1987	1.529214e-08	8.766019e-04	
1988	1.529934e-08	9.315671e-04	
1989	1.530749e-08	9.863493e-04	
1990	1.531384e-08	1.036156e-03	
1991	1.531994e-08	1.078506e-03	
1992	1.532673e-08	1.124258e-03	
1993	1.533423e-08	1.168774e-03	
1994	1.534207e-08	1.219422e-03	
1995	1.534819e-08	1.255600e-03	
1996	1.535454e-08	1.279297e-03	
1997	1.536089e-08	1.302816e-03	
1998	1.536968e-08	1.329893e-03	
1999	1.537586e-08	1.354342e-03	
2000	1.538163e-08	1.373926e-03	
2001	1.538916e-08	1.397748e-03	
2002	1.539698e-08	1.417508e-03	
2003	1.540386e-08	1.444131e-03	
2004	1.541127e-08	1.459306e-03	
2005	1.541772e-08	1.477990e-03	
2006	1.542470e-08	1.499579e-03	
2007	1.543308e-08	1.526147e-03	
2008	1.543958e-08	1.561808e-03	
2009	1.544564e-08	1.600219e-03	
2010	1.545235e-08	1.657105e-03	
2011	1.546087e-08	1.783965e-03	
2012	1.546705e-08	1.921643e-03	
2013	1.547282e-08	2.058981e-03	
2014	1.548025e-08	2.184844e-03	
2015	1.548799e-08	2.287676e-03	
2016	1.549493e-08	2.379019e-03	
2017	1.550266e-08	2.448592e-03	
2018	1.550927e-08	2.509091e-03	
2019	1.551617e-08	2.566886e-03	
2020	1.552423e-08	2.627423e-03	
2021	1.553072e-08	2.670950e-03	
2022	1.553663e-08	2.705626e-03	
2023	1.554325e-08	2.740890e-03	
2024	1.555161e-08	2.776844e-03	
2025	1.555782e-08	2.803441e-03	
2026	1.556370e-08	2.825014e-03	

Index   time            v(out)          
--------------------------------------------------------------------------------
2027	1.557083e-08	2.763740e-03	
2028	1.557838e-08	2.811538e-03	
2029	1.558554e-08	2.821906e-03	
2030	1.559173e-08	2.824149e-03	
2031	1.559809e-08	2.819120e-03	
2032	1.560424e-08	2.809749e-03	
2033	1.561321e-08	2.787381e-03	
2034	1.561939e-08	2.762901e-03	
2035	1.562517e-08	2.801760e-03	
2036	1.563279e-08	2.748507e-03	
2037	1.564066e-08	2.521398e-03	
2038	1.564748e-08	1.974922e-03	
2039	1.565464e-08	3.384663e-03	
2040	1.566096e-08	7.614480e-03	
2041	1.566803e-08	6.684487e-03	
2042	1.567737e-08	-3.189270e-02	
2043	1.568396e-08	-4.635190e-02	
2044	1.569081e-08	1.470215e-01	
2045	1.569784e-08	5.325937e-01	
2046	1.570738e-08	1.126789e+00	
2047	1.571629e-08	1.602909e+00	
2048	1.572637e-08	1.949337e+00	
2049	1.573527e-08	1.969222e+00	
2050	1.574470e-08	1.973942e+00	
2051	1.575089e-08	1.994001e+00	
2052	1.575690e-08	1.991390e+00	
2053	1.576559e-08	1.993444e+00	
2054	1.577377e-08	1.998128e+00	
2055	1.578154e-08	1.998958e+00	
2056	1.578899e-08	1.998712e+00	
2057	1.579843e-08	1.999439e+00	
2058	1.580725e-08	1.999419e+00	
2059	1.581532e-08	1.999321e+00	
2060	1.582275e-08	1.999409e+00	
2061	1.583077e-08	1.999430e+00	
2062	1.583926e-08	1.999410e+00	
2063	1.584554e-08	1.999423e+00	
2064	1.585213e-08	1.999420e+00	
2065	1.585876e-08	1.999426e+00	
2066	1.586809e-08	1.999423e+00	
2067	1.587356e-08	1.999426e+00	
2068	1.587960e-08	1.999425e+00	
2069	1.588673e-08	1.999429e+00	
2070	1.589560e-08	1.999428e+00	
2071	1.590284e-08	1.999430e+00	
2072	1.590992e-08	1.999431e+00	
2073	1.591116e-08	1.999433e+00	
2074	1.591365e-08	1.999435e+00	
2075	1.591862e-08	1.999433e+00	
2076	1.592472e-08	1.999435e+00	
2077	1.593080e-08	1.999436e+00	
2078	1.593710e-08	1.999440e+00	
2079	1.594310e-08	1.999442e+00	
2080	1.594951e-08	1.999447e+00	
2081	1.595856e-08	1.999437e+00	
2082	1.596467e-08	1.999439e+00	
[...]
--------------------------------------------------------------------------------
6261	4.582748e-08	1.989550e+00	
6262	4.583439e-08	1.993459e+00	
6263	4.584162e-08	1.991098e+00	
6264	4.584957e-08	1.996672e+00	
6265	4.585605e-08	1.998623e+00	
6266	4.586463e-08	1.998514e+00	
6267	4.587196e-08	1.998828e+00	
6268	4.587913e-08	1.999649e+00	
6269	4.588621e-08	1.998927e+00	
6270	4.589239e-08	1.999245e+00	
6271	4.589838e-08	1.999310e+00	
6272	4.590468e-08	1.999430e+00	
6273	4.591306e-08	1.999346e+00	
6274	4.591890e-08	1.999385e+00	
6275	4.592592e-08	1.999402e+00	
6276	4.593224e-08	1.999418e+00	
6277	4.593940e-08	1.999404e+00	
6278	4.594907e-08	1.999411e+00	
6279	4.595796e-08	1.999412e+00	
6280	4.596674e-08	1.999412e+00	
6281	4.597548e-08	1.999418e+00	
6282	4.598267e-08	1.999416e+00	
6283	4.598952e-08	1.999419e+00	
6284	4.599700e-08	1.999419e+00	
6285	4.600510e-08	1.999424e+00	
6286	4.601381e-08	1.999420e+00	
6287	4.602237e-08	1.999422e+00	
6288	4.603052e-08	1.999422e+00	
6289	4.603903e-08	1.999426e+00	
6290	4.604716e-08	1.999429e+00	
6291	4.605485e-08	1.999425e+00	
6292	4.606353e-08	1.999427e+00	
6293	4.607380e-08	1.999427e+00	
6294	4.608341e-08	1.999432e+00	
6295	4.609264e-08	1.999436e+00	
6296	4.610217e-08	1.999427e+00	
6297	4.610760e-08	1.999430e+00	
6298	4.611411e-08	1.999429e+00	
6299	4.612164e-08	1.999431e+00	
6300	4.612936e-08	1.999431e+00	
6301	4.613568e-08	1.999436e+00	
6302	4.614427e-08	1.999432e+00	
6303	4.615095e-08	1.999424e+00	
6304	4.615781e-08	1.999423e+00	
6305	4.616531e-08	1.999418e+00	
6306	4.617132e-08	1.999415e+00	
6307	4.617706e-08	1.999412e+00	
6308	4.618363e-08	1.999411e+00	
6309	4.619283e-08	1.999409e+00	
6310	4.619882e-08	1.999395e+00	
6311	4.620614e-08	1.999389e+00	
6312	4.621255e-08	1.999382e+00	
6313	4.621989e-08	1.999379e+00	
6314	4.622826e-08	1.999361e+00	
6315	4.623769e-08	1.999343e+00	
6316	4.624633e-08	1.999328e+00	
6317	4.625496e-08	1.999325e+00	
6318	4.626201e-08	1.999305e+00	

Index   time            v(out)          
--------------------------------------------------------------------------------
6319	4.626874e-08	1.999295e+00	
6320	4.627579e-08	1.999285e+00	
6321	4.628365e-08	1.999284e+00	
6322	4.629248e-08	1.999263e+00	
6323	4.630135e-08	1.999258e+00	
6324	4.630261e-08	1.999257e+00	
6325	4.630512e-08	1.999256e+00	
6326	4.631014e-08	1.999259e+00	
6327	4.631578e-08	1.999249e+00	
6328	4.632187e-08	1.999243e+00	
6329	4.632830e-08	1.999239e+00	
6330	4.633451e-08	1.999244e+00	
6331	4.634103e-08	1.999234e+00	
6332	4.634209e-08	1.999234e+00	
6333	4.634422e-08	1.999234e+00	
6334	4.634847e-08	1.999230e+00	
6335	4.635317e-08	1.999227e+00	
6336	4.635778e-08	1.999229e+00	
6337	4.636449e-08	1.999221e+00	
6338	4.637060e-08	1.999215e+00	
6339	4.637887e-08	1.999205e+00	
6340	4.638513e-08	1.999194e+00	
6341	4.639130e-08	1.999179e+00	
6342	4.639817e-08	1.999155e+00	
6343	4.640574e-08	1.999114e+00	
6344	4.641373e-08	1.999046e+00	
6345	4.642017e-08	1.999006e+00	
6346	4.642668e-08	1.998975e+00	
6347	4.643331e-08	1.998949e+00	
6348	4.644186e-08	1.998917e+00	
6349	4.644818e-08	1.998895e+00	
6350	4.645409e-08	1.998883e+00	
6351	4.646157e-08	1.998852e+00	
6352	4.646932e-08	1.998829e+00	
6353	4.647622e-08	1.998809e+00	
6354	4.648439e-08	1.998802e+00	
6355	4.649183e-08	1.998782e+00	
6356	4.649865e-08	1.998721e+00	
6357	4.650592e-08	1.998680e+00	
6358	4.651182e-08	1.998732e+00	
6359	4.651782e-08	1.999381e+00	
6360	4.652410e-08	1.999407e+00	
6361	4.653257e-08	1.997295e+00	
6362	4.653921e-08	1.989275e+00	
6363	4.654604e-08	1.999423e+00	
6364	4.655264e-08	2.066954e+00	
6365	4.656008e-08	2.116810e+00	
6366	4.656813e-08	1.874013e+00	
6367	4.657469e-08	1.409332e+00	
6368	4.658121e-08	9.686529e-01	
6369	4.658787e-08	6.176963e-01	
6370	4.659754e-08	2.606310e-01	
6371	4.660748e-08	1.027365e-01	
6372	4.661452e-08	7.591584e-02	
6373	4.662197e-08	3.496957e-02	
6374	4.662980e-08	1.495635e-02	
6375	4.663767e-08	9.183001e-03	
6376	4.664428e-08	6.255435e-03	

Index   time            v(out)          
--------------------------------------------------------------------------------
6377	4.665073e-08	1.549104e-03	
6378	4.665740e-08	1.760704e-03	
6379	4.666599e-08	1.491740e-03	
6380	4.667233e-08	1.064335e-03	
6381	4.667821e-08	4.527362e-04	
6382	4.668578e-08	7.209945e-04	
6383	4.669361e-08	6.110376e-04	
6384	4.670049e-08	4.845712e-04	
6385	4.670832e-08	4.829538e-04	
6386	4.671498e-08	5.104645e-04	
6387	4.672212e-08	4.942106e-04	
6388	4.673013e-08	4.714120e-04	
6389	4.673680e-08	4.882546e-04	
6390	4.674293e-08	4.755313e-04	
6391	4.674974e-08	4.809224e-04	
6392	4.675823e-08	4.773633e-04	
6393	4.676464e-08	4.851642e-04	
6394	4.677072e-08	4.813940e-04	
6395	4.677813e-08	4.809618e-04	
6396	4.678588e-08	4.794069e-04	
6397	4.679278e-08	4.807821e-04	
6398	4.679969e-08	4.773721e-04	
6399	4.680664e-08	4.812011e-04	
6400	4.681306e-08	4.784652e-04	
6401	4.682181e-08	4.789492e-04	
6402	4.682822e-08	4.757005e-04	
6403	4.683404e-08	4.852438e-04	
6404	4.684165e-08	4.959292e-04	
6405	4.685042e-08	4.999673e-04	
6406	4.685708e-08	5.078608e-04	
6407	4.686343e-08	5.085528e-04	
6408	4.687052e-08	5.183761e-04	
6409	4.687836e-08	5.276747e-04	
6410	4.688547e-08	5.413270e-04	
6411	4.689194e-08	5.548270e-04	
6412	4.689855e-08	5.681178e-04	
6413	4.690489e-08	5.869528e-04	
6414	4.691336e-08	6.115229e-04	
6415	4.691968e-08	6.287251e-04	
6416	4.692561e-08	6.504589e-04	
6417	4.693305e-08	6.991352e-04	
6418	4.694078e-08	7.480395e-04	
6419	4.694769e-08	7.890228e-04	
6420	4.695482e-08	8.392583e-04	
6421	4.696197e-08	8.868258e-04	
6422	4.696846e-08	9.305795e-04	
6423	4.697723e-08	9.853868e-04	
6424	4.698384e-08	1.035529e-03	
6425	4.698980e-08	1.075481e-03	
6426	4.699712e-08	1.122107e-03	
6427	4.700656e-08	1.177479e-03	
6428	4.701302e-08	1.214191e-03	
6429	4.701912e-08	1.241256e-03	
6430	4.702679e-08	1.280360e-03	
6431	4.703476e-08	1.314707e-03	
6432	4.704154e-08	1.343229e-03	
6433	4.704895e-08	1.370053e-03	
6434	4.705552e-08	1.400417e-03	

Index   time            v(out)          
--------------------------------------------------------------------------------
6435	4.706277e-08	1.430519e-03	
6436	4.707093e-08	1.469176e-03	
6437	4.707757e-08	1.504979e-03	
6438	4.708382e-08	1.544334e-03	
6439	4.709065e-08	1.595515e-03	
6440	4.709919e-08	1.699718e-03	
6441	4.710556e-08	1.813825e-03	
6442	4.711155e-08	1.967990e-03	
6443	4.711901e-08	2.141636e-03	
6444	4.712678e-08	2.274295e-03	
6445	4.713375e-08	2.377257e-03	
6446	4.714194e-08	2.486144e-03	
6447	4.714936e-08	2.581510e-03	
6448	4.715622e-08	2.655720e-03	
6449	4.716348e-08	2.731568e-03	
6450	4.717145e-08	2.807829e-03	
6451	4.717875e-08	2.874163e-03	
6452	4.718593e-08	2.927311e-03	
6453	4.719473e-08	2.983543e-03	
6454	4.720071e-08	3.016494e-03	
6455	4.720715e-08	3.047955e-03	
6456	4.721398e-08	3.078168e-03	
6457	4.722254e-08	2.993295e-03	
6458	4.722804e-08	3.061429e-03	
6459	4.723458e-08	3.091155e-03	
6460	4.724155e-08	3.105230e-03	
6461	4.724900e-08	3.106662e-03	
6462	4.725729e-08	3.103439e-03	
6463	4.726385e-08	3.087616e-03	
6464	4.727064e-08	3.070543e-03	
6465	4.727740e-08	3.039928e-03	
6466	4.728619e-08	3.010361e-03	
6467	4.729161e-08	2.975409e-03	
6468	4.729768e-08	3.008272e-03	
6469	4.730521e-08	2.940130e-03	
6470	4.731313e-08	2.711613e-03	
6471	4.731925e-08	2.249661e-03	
6472	4.732647e-08	2.969820e-03	
6473	4.733275e-08	6.853609e-03	
6474	4.733934e-08	8.442190e-03	
6475	4.734790e-08	-9.030565e-03	
6476	4.735323e-08	-5.469928e-02	
6477	4.735922e-08	-2.937783e-02	
6478	4.736672e-08	2.431961e-01	
6479	4.737466e-08	7.043927e-01	
6480	4.738554e-08	1.343192e+00	
6481	4.739305e-08	1.727079e+00	
6482	4.740149e-08	1.937516e+00	
6483	4.741076e-08	1.963999e+00	
6484	4.742075e-08	1.978090e+00	
6485	4.742683e-08	1.994970e+00	
6486	4.743359e-08	1.991299e+00	
6487	4.744101e-08	1.993658e+00	
6488	4.745064e-08	1.998324e+00	
6489	4.745632e-08	1.999166e+00	
6490	4.746266e-08	1.997918e+00	
6491	4.747054e-08	1.999159e+00	
6492	4.747896e-08	1.999547e+00	

Index   time            v(out)          
--------------------------------------------------------------------------------
6493	4.748635e-08	1.999238e+00	
6494	4.749344e-08	1.999310e+00	
6495	4.750117e-08	1.999431e+00	
6496	4.750939e-08	1.999353e+00	
6497	4.751782e-08	1.999397e+00	
6498	4.752605e-08	1.999417e+00	
6499	4.753542e-08	1.999397e+00	
6500	4.754411e-08	1.999409e+00	
6501	4.755175e-08	1.999410e+00	
6502	4.755875e-08	1.999409e+00	
6503	4.756619e-08	1.999414e+00	
6504	4.757522e-08	1.999416e+00	
6505	4.758075e-08	1.999416e+00	
6506	4.758696e-08	1.999418e+00	
6507	4.759440e-08	1.999424e+00	
6508	4.760271e-08	1.999420e+00	
6509	4.760859e-08	1.999421e+00	
6510	4.761623e-08	1.999419e+00	
6511	4.762275e-08	1.999423e+00	
6512	4.762971e-08	1.999422e+00	
6513	4.763774e-08	1.999423e+00	
6514	4.764389e-08	1.999423e+00	
6515	4.764981e-08	1.999425e+00	
6516	4.765659e-08	1.999425e+00	
6517	4.766537e-08	1.999426e+00	
6518	4.767115e-08	1.999426e+00	
6519	4.767818e-08	1.999429e+00	
6520	4.768465e-08	1.999431e+00	
6521	4.769193e-08	1.999427e+00	
6522	4.770051e-08	1.999429e+00	
6523	4.770998e-08	1.999427e+00	
6524	4.771855e-08	1.999427e+00	
6525	4.772720e-08	1.999426e+00	
6526	4.773443e-08	1.999428e+00	
6527	4.774136e-08	1.999423e+00	
6528	4.774257e-08	1.999424e+00	
6529	4.774498e-08	1.999425e+00	
6530	4.774981e-08	1.999426e+00	
6531	4.775603e-08	1.999420e+00	
6532	4.776300e-08	1.999416e+00	
6533	4.777058e-08	1.999411e+00	
6534	4.777717e-08	1.999412e+00	
6535	4.778404e-08	1.999403e+00	
6536	4.779287e-08	1.999394e+00	
6537	4.779955e-08	1.999387e+00	
6538	4.780568e-08	1.999386e+00	
6539	4.781291e-08	1.999371e+00	
6540	4.782236e-08	1.999358e+00	
6541	4.782877e-08	1.999348e+00	
6542	4.783480e-08	1.999347e+00	
6543	4.784273e-08	1.999327e+00	
6544	4.785085e-08	1.999314e+00	
6545	4.785756e-08	1.999303e+00	
6546	4.786435e-08	1.999302e+00	
6547	4.787096e-08	1.999286e+00	
6548	4.787845e-08	1.999276e+00	
6549	4.788650e-08	1.999267e+00	
6550	4.789302e-08	1.999261e+00	

Index   time            v(out)          
--------------------------------------------------------------------------------
6551	4.789945e-08	1.999265e+00	
6552	4.790615e-08	1.999251e+00	
6553	4.791470e-08	1.999244e+00	
6554	4.792105e-08	1.999240e+00	
6555	4.792700e-08	1.999247e+00	
6556	4.793449e-08	1.999234e+00	
6557	4.794226e-08	1.999230e+00	
6558	4.794916e-08	1.999226e+00	
6559	4.795733e-08	1.999232e+00	
6560	4.796479e-08	1.999217e+00	
6561	4.797161e-08	1.999210e+00	
6562	4.797887e-08	1.999198e+00	
6563	4.797969e-08	1.999197e+00	
6564	4.798135e-08	1.999195e+00	
6565	4.798465e-08	1.999191e+00	
6566	4.798815e-08	1.999188e+00	
6567	4.799513e-08	1.999152e+00	
6568	4.800415e-08	1.999098e+00	
6569	4.801118e-08	1.999034e+00	
6570	4.801944e-08	1.998989e+00	
6571	4.802635e-08	1.998959e+00	
6572	4.803358e-08	1.998934e+00	
6573	4.804083e-08	1.998907e+00	
6574	4.804737e-08	1.998893e+00	
6575	4.805348e-08	1.998866e+00	
6576	4.805996e-08	1.998845e+00	
6577	4.806830e-08	1.998821e+00	
6578	4.807473e-08	1.998802e+00	
6579	4.808091e-08	1.998804e+00	
6580	4.808805e-08	1.998775e+00	
6581	4.809571e-08	1.998722e+00	
6582	4.810305e-08	1.998667e+00	
6583	4.810938e-08	1.998806e+00	
6584	4.811591e-08	1.999516e+00	
6585	4.812228e-08	1.999198e+00	
6586	4.813069e-08	1.996394e+00	
6587	4.813708e-08	1.988077e+00	
6588	4.814314e-08	2.002513e+00	
6589	4.815051e-08	2.081340e+00	
6590	4.815822e-08	2.108935e+00	
6591	4.816504e-08	1.854621e+00	
6592	4.817179e-08	1.374464e+00	
6593	4.817860e-08	9.191341e-01	
6594	4.818486e-08	5.980533e-01	
6595	4.819526e-08	2.318881e-01	
6596	4.820479e-08	9.988295e-02	
6597	4.821248e-08	7.006544e-02	
6598	4.822048e-08	2.707179e-02	
6599	4.822837e-08	1.253158e-02	
6600	4.823487e-08	9.133708e-03	
6601	4.824296e-08	4.895903e-03	
6602	4.824964e-08	6.251913e-04	
6603	4.825661e-08	2.127054e-03	
6604	4.826469e-08	1.281112e-03	
6605	4.827073e-08	9.148914e-04	
6606	4.827689e-08	4.447157e-04	
6607	4.828353e-08	7.393050e-04	
6608	4.829208e-08	5.657300e-04	

Index   time            v(out)          
--------------------------------------------------------------------------------
6609	4.829861e-08	4.762982e-04	
6610	4.830500e-08	4.774982e-04	
6611	4.831188e-08	5.159558e-04	
6612	4.831955e-08	4.792011e-04	
6613	4.832719e-08	4.779045e-04	
6614	4.833355e-08	4.850456e-04	
6615	4.834008e-08	4.815302e-04	
6616	4.834656e-08	4.821106e-04	
6617	4.835503e-08	4.854341e-04	
6618	4.836141e-08	4.844316e-04	
6619	4.836741e-08	4.793919e-04	
6620	4.837484e-08	4.802060e-04	
6621	4.838259e-08	4.794008e-04	
6622	4.838950e-08	4.808972e-04	
6623	4.839651e-08	4.779107e-04	
6624	4.840354e-08	4.823200e-04	
6625	4.840999e-08	4.792703e-04	
6626	4.841885e-08	4.798113e-04	
6627	4.842537e-08	4.859066e-04	
6628	4.843129e-08	4.863600e-04	
6629	4.843877e-08	4.926701e-04	
6630	4.844835e-08	4.955031e-04	
6631	4.845490e-08	5.033101e-04	
6632	4.846109e-08	5.055793e-04	
6633	4.846878e-08	5.122115e-04	
6634	4.847678e-08	5.304273e-04	
6635	4.848355e-08	5.445581e-04	
6636	4.849092e-08	5.587893e-04	
6637	4.849751e-08	5.770219e-04	
6638	4.850476e-08	5.970089e-04	
6639	4.851291e-08	6.249602e-04	
6640	4.851955e-08	6.540988e-04	
6641	4.852581e-08	6.810913e-04	
6642	4.853264e-08	7.186669e-04	
6643	4.854119e-08	7.717459e-04	
6644	4.854757e-08	8.134286e-04	
6645	4.855356e-08	8.534210e-04	
6646	4.856102e-08	9.000446e-04	
6647	4.856879e-08	9.478943e-04	
6648	4.857569e-08	1.003929e-03	
6649	4.858294e-08	1.052669e-03	
6650	4.858946e-08	1.095090e-03	
6651	4.859624e-08	1.133465e-03	
6652	4.860511e-08	1.186131e-03	
6653	4.861167e-08	1.220874e-03	
6654	4.861766e-08	1.252270e-03	
6655	4.862504e-08	1.285385e-03	
6656	4.863465e-08	1.326388e-03	
6657	4.864114e-08	1.354170e-03	
6658	4.864729e-08	1.380774e-03	
6659	4.865505e-08	1.411861e-03	
6660	4.866310e-08	1.442002e-03	
6661	4.866983e-08	1.463436e-03	
6662	4.867697e-08	1.518914e-03	
6663	4.868357e-08	1.566309e-03	
6664	4.869089e-08	1.636930e-03	
6665	4.869905e-08	1.751057e-03	
6666	4.870567e-08	1.886680e-03	

Index   time            v(out)          
--------------------------------------------------------------------------------
6667	4.871199e-08	2.060367e-03	
6668	4.871881e-08	2.175359e-03	
6669	4.872737e-08	2.323732e-03	
6670	4.873375e-08	2.417035e-03	
6671	4.873972e-08	2.496339e-03	
6672	4.874723e-08	2.588794e-03	
6673	4.875503e-08	2.676480e-03	
6674	4.876202e-08	2.753328e-03	
6675	4.877003e-08	2.823154e-03	
6676	4.877681e-08	2.880429e-03	
6677	4.878393e-08	2.933919e-03	
6678	4.879219e-08	2.989919e-03	
6679	4.879846e-08	3.022371e-03	
6680	4.880502e-08	3.051487e-03	
6681	4.881170e-08	3.075645e-03	
6682	4.882024e-08	2.998652e-03	
6683	4.882566e-08	3.063068e-03	
6684	4.883195e-08	3.090935e-03	
6685	4.883913e-08	3.104894e-03	
6686	4.884655e-08	3.105349e-03	
6687	4.885404e-08	3.100246e-03	
6688	4.886202e-08	3.081186e-03	
6689	4.886947e-08	3.059200e-03	
6690	4.887646e-08	3.029327e-03	
6691	4.888493e-08	2.994304e-03	
6692	4.889097e-08	2.971809e-03	
6693	4.889741e-08	3.002047e-03	
6694	4.890412e-08	2.890831e-03	
6695	4.891263e-08	2.639772e-03	
6696	4.891813e-08	2.075476e-03	
6697	4.892467e-08	3.435382e-03	
6698	4.893160e-08	7.873814e-03	
6699	4.893905e-08	6.800956e-03	
6700	4.894746e-08	-2.763444e-02	
6701	4.895408e-08	-5.411762e-02	
6702	4.896093e-08	9.872950e-02	
6703	4.896777e-08	4.497191e-01	
6704	4.897670e-08	1.004820e+00	
6705	4.898600e-08	1.517952e+00	
6706	4.899448e-08	1.870205e+00	
6707	4.900326e-08	1.960493e+00	
6708	4.901225e-08	1.965584e+00	
6709	4.902123e-08	1.989516e+00	
6710	4.903011e-08	1.994395e+00	
6711	4.903815e-08	1.991379e+00	
6712	4.904693e-08	1.999016e+00	
6713	4.905477e-08	1.998896e+00	
6714	4.906223e-08	1.998324e+00	
6715	4.907091e-08	1.999451e+00	
6716	4.908011e-08	1.999273e+00	
6717	4.908792e-08	1.999204e+00	
6718	4.909505e-08	1.999368e+00	
6719	4.910235e-08	1.999432e+00	
6720	4.911132e-08	1.999365e+00	
6721	4.911726e-08	1.999415e+00	
6722	4.912371e-08	1.999391e+00	
6723	4.913062e-08	1.999409e+00	
6724	4.913925e-08	1.999403e+00	

Index   time            v(out)          
--------------------------------------------------------------------------------
6725	4.914478e-08	1.999412e+00	
6726	4.915137e-08	1.999408e+00	
6727	4.915834e-08	1.999410e+00	
6728	4.916583e-08	1.999408e+00	
6729	4.917418e-08	1.999414e+00	
6730	4.918093e-08	1.999414e+00	
6731	4.918787e-08	1.999417e+00	
6732	4.919471e-08	1.999419e+00	
6733	4.920371e-08	1.999418e+00	
6734	4.920938e-08	1.999419e+00	
6735	4.921562e-08	1.999420e+00	
6736	4.922274e-08	1.999421e+00	
6737	4.923204e-08	1.999423e+00	
6738	4.923778e-08	1.999423e+00	
6739	4.924464e-08	1.999425e+00	
6740	4.925144e-08	1.999424e+00	
6741	4.925895e-08	1.999425e+00	
6742	4.926692e-08	1.999424e+00	
6743	4.927333e-08	1.999425e+00	
6744	4.927997e-08	1.999427e+00	
6745	4.928658e-08	1.999426e+00	
6746	4.929520e-08	1.999428e+00	
6747	4.930057e-08	1.999427e+00	
6748	4.930673e-08	1.999427e+00	
6749	4.931398e-08	1.999426e+00	
6750	4.932144e-08	1.999428e+00	
6751	4.932868e-08	1.999431e+00	
6752	4.933671e-08	1.999424e+00	
6753	4.934426e-08	1.999419e+00	
6754	4.935125e-08	1.999417e+00	
6755	4.935927e-08	1.999414e+00	
6756	4.936508e-08	1.999415e+00	
6757	4.937132e-08	1.999406e+00	
6758	4.937783e-08	1.999403e+00	
6759	4.938637e-08	1.999396e+00	
6760	4.939215e-08	1.999391e+00	
6761	4.939914e-08	1.999389e+00	
6762	4.940556e-08	1.999377e+00	
6763	4.941279e-08	1.999369e+00	
6764	4.942116e-08	1.999358e+00	
6765	4.942892e-08	1.999343e+00	
6766	4.943603e-08	1.999330e+00	
6767	4.944317e-08	1.999326e+00	
6768	4.945104e-08	1.999307e+00	
6769	4.945690e-08	1.999301e+00	
6770	4.946262e-08	1.999291e+00	
6771	4.946966e-08	1.999289e+00	
6772	4.947786e-08	1.999272e+00	
6773	4.948410e-08	1.999266e+00	
6774	4.949238e-08	1.999257e+00	
6775	4.949912e-08	1.999262e+00	
6776	4.950601e-08	1.999245e+00	
6777	4.951369e-08	1.999242e+00	
6778	4.952197e-08	1.999236e+00	
6779	4.952954e-08	1.999246e+00	
6780	4.953740e-08	1.999230e+00	
6781	4.954551e-08	1.999227e+00	
6782	4.955158e-08	1.999223e+00	

Index   time            v(out)          
--------------------------------------------------------------------------------
6783	4.955803e-08	1.999227e+00	
6784	4.956459e-08	1.999214e+00	
6785	4.957304e-08	1.999203e+00	
6786	4.957853e-08	1.999191e+00	
6787	4.958508e-08	1.999176e+00	
6788	4.959190e-08	1.999153e+00	
6789	4.959929e-08	1.999110e+00	
6790	4.960751e-08	1.999042e+00	
6791	4.961484e-08	1.999000e+00	
6792	4.962147e-08	1.998964e+00	
6793	4.962843e-08	1.998945e+00	
6794	4.963726e-08	1.998907e+00	
6795	4.964279e-08	1.998889e+00	
6796	4.964893e-08	1.998870e+00	
6797	4.965614e-08	1.998852e+00	
6798	4.966464e-08	1.998823e+00	
6799	4.967032e-08	1.998807e+00	
6800	4.967817e-08	1.998794e+00	
6801	4.968540e-08	1.998778e+00	
6802	4.969244e-08	1.998721e+00	
6803	4.969995e-08	1.998682e+00	
6804	4.970638e-08	1.998749e+00	
6805	4.971234e-08	1.999409e+00	
6806	4.971893e-08	1.999337e+00	
6807	4.972741e-08	1.996942e+00	
6808	4.973309e-08	1.989349e+00	
6809	4.973991e-08	1.997854e+00	
6810	4.974653e-08	2.063027e+00	
6811	4.975372e-08	2.118113e+00	
6812	4.976217e-08	1.887846e+00	
6813	4.976897e-08	1.410526e+00	
6814	4.977536e-08	9.766990e-01	
6815	4.978232e-08	6.101689e-01	
6816	4.979189e-08	2.595564e-01	
6817	4.980230e-08	9.863491e-02	
6818	4.981004e-08	7.114680e-02	
6819	4.981781e-08	2.845055e-02	
6820	4.982607e-08	1.239711e-02	
6821	4.983359e-08	8.762080e-03	
6822	4.984116e-08	4.516790e-03	
6823	4.984788e-08	7.957815e-04	
6824	4.985539e-08	1.989810e-03	
6825	4.986530e-08	1.114134e-03	
6826	4.987521e-08	5.325216e-04	
6827	4.988332e-08	5.821192e-04	
6828	4.989190e-08	5.987442e-04	
6829	4.990021e-08	3.852268e-04	
6830	4.990783e-08	5.670341e-04	
6831	4.991650e-08	5.028166e-04	
6832	4.992511e-08	4.728145e-04	
6833	4.993105e-08	4.889362e-04	
6834	4.993735e-08	4.856136e-04	
6835	4.994415e-08	4.894318e-04	
6836	4.995279e-08	4.973805e-04	
6837	4.995842e-08	4.901005e-04	
6838	4.996524e-08	4.818998e-04	
6839	4.997213e-08	4.819028e-04	
6840	4.997930e-08	4.805510e-04	

Index   time            v(out)          
--------------------------------------------------------------------------------
6841	4.998751e-08	4.816461e-04	
6842	4.999507e-08	4.790287e-04	
6843	5.000000e-08	4.820213e-04	




