
No. of Data Rows : 1806

Circuit: *model = BSIMSOI (PD)

Doing analysis at TEMP = 300.150000 and TNOM = 300.150000
Warning: Pd = 0 is less than W.
Warning: Ps = 0 is less than W.

                             *model = BSIMSOI (PD)
--------------------------------------------------------------------------------
Index   v-sweep         v(g)            vs#branch       
--------------------------------------------------------------------------------
0	0.000000e+00	5.000000e-01	0.000000e+00	
1	1.000000e-02	5.000000e-01	2.933649e-06	
2	2.000000e-02	5.000000e-01	5.424817e-06	
3	3.000000e-02	5.000000e-01	7.494119e-06	
4	4.000000e-02	5.000000e-01	9.168761e-06	
5	5.000000e-02	5.000000e-01	1.048555e-05	
6	6.000000e-02	5.000000e-01	1.149269e-05	
7	7.000000e-02	5.000000e-01	1.224807e-05	
8	8.000000e-02	5.000000e-01	1.281282e-05	
9	9.000000e-02	5.000000e-01	1.324287e-05	
10	1.000000e-01	5.000000e-01	1.358286e-05	
11	1.100000e-01	5.000000e-01	1.386487e-05	
12	1.200000e-01	5.000000e-01	1.411044e-05	
13	1.300000e-01	5.000000e-01	1.433348e-05	
14	1.400000e-01	5.000000e-01	1.454291e-05	
15	1.500000e-01	5.000000e-01	1.474448e-05	
16	1.600000e-01	5.000000e-01	1.494196e-05	
17	1.700000e-01	5.000000e-01	1.513789e-05	
18	1.800000e-01	5.000000e-01	1.533400e-05	
19	1.900000e-01	5.000000e-01	1.553154e-05	
20	2.000000e-01	5.000000e-01	1.573140e-05	
21	2.100000e-01	5.000000e-01	1.593428e-05	
22	2.200000e-01	5.000000e-01	1.614070e-05	
23	2.300000e-01	5.000000e-01	1.635107e-05	
24	2.400000e-01	5.000000e-01	1.656575e-05	
25	2.500000e-01	5.000000e-01	1.678500e-05	
26	2.600000e-01	5.000000e-01	1.700908e-05	
27	2.700000e-01	5.000000e-01	1.723820e-05	
28	2.800000e-01	5.000000e-01	1.747254e-05	
29	2.900000e-01	5.000000e-01	1.771227e-05	
30	3.000000e-01	5.000000e-01	1.795755e-05	
31	3.100000e-01	5.000000e-01	1.820849e-05	
32	3.200000e-01	5.000000e-01	1.846525e-05	
33	3.300000e-01	5.000000e-01	1.872792e-05	
34	3.400000e-01	5.000000e-01	1.899663e-05	
35	3.500000e-01	5.000000e-01	1.927147e-05	
36	3.600000e-01	5.000000e-01	1.955254e-05	
37	3.700000e-01	5.000000e-01	1.983995e-05	
38	3.800000e-01	5.000000e-01	2.013377e-05	
39	3.900000e-01	5.000000e-01	2.043409e-05	
40	4.000000e-01	5.000000e-01	2.074100e-05	
41	4.100000e-01	5.000000e-01	2.105459e-05	
42	4.200000e-01	5.000000e-01	2.137492e-05	
43	4.300000e-01	5.000000e-01	2.170208e-05	
44	4.400000e-01	5.000000e-01	2.203615e-05	
45	4.500000e-01	5.000000e-01	2.237720e-05	
46	4.600000e-01	5.000000e-01	2.272532e-05	
47	4.700000e-01	5.000000e-01	2.308059e-05	
48	4.800000e-01	5.000000e-01	2.344310e-05	
49	4.900000e-01	5.000000e-01	2.381293e-05	
50	5.000000e-01	5.000000e-01	2.419018e-05	
51	5.100000e-01	5.000000e-01	2.457494e-05	
52	5.200000e-01	5.000000e-01	2.496733e-05	
53	5.300000e-01	5.000000e-01	2.536747e-05	
54	5.400000e-01	5.000000e-01	2.577548e-05	

Index   v-sweep         v(g)            vs#branch       
--------------------------------------------------------------------------------
55	5.500000e-01	5.000000e-01	2.619150e-05	
56	5.600000e-01	5.000000e-01	2.661571e-05	
57	5.700000e-01	5.000000e-01	2.704827e-05	
58	5.800000e-01	5.000000e-01	2.748939e-05	
59	5.900000e-01	5.000000e-01	2.793930e-05	
60	6.000000e-01	5.000000e-01	2.839824e-05	
61	6.100000e-01	5.000000e-01	2.886653e-05	
62	6.200000e-01	5.000000e-01	2.934448e-05	
63	6.300000e-01	5.000000e-01	2.983247e-05	
64	6.400000e-01	5.000000e-01	3.033093e-05	
65	6.500000e-01	5.000000e-01	3.084035e-05	
66	6.600000e-01	5.000000e-01	3.136126e-05	
67	6.700000e-01	5.000000e-01	3.189431e-05	
68	6.800000e-01	5.000000e-01	3.244018e-05	
69	6.900000e-01	5.000000e-01	3.299967e-05	
70	7.000000e-01	5.000000e-01	3.357368e-05	
71	7.100000e-01	5.000000e-01	3.416322e-05	
72	7.200000e-01	5.000000e-01	3.476942e-05	
73	7.300000e-01	5.000000e-01	3.539354e-05	
74	7.400000e-01	5.000000e-01	3.603701e-05	
75	7.500000e-01	5.000000e-01	3.670140e-05	
76	7.600000e-01	5.000000e-01	3.738846e-05	
77	7.700000e-01	5.000000e-01	3.810015e-05	
78	7.800000e-01	5.000000e-01	3.883862e-05	
79	7.900000e-01	5.000000e-01	3.960622e-05	
80	8.000000e-01	5.000000e-01	4.040557e-05	
81	8.100000e-01	5.000000e-01	4.123949e-05	
82	8.200000e-01	5.000000e-01	4.211107e-05	
83	8.300000e-01	5.000000e-01	4.302364e-05	
84	8.400000e-01	5.000000e-01	4.398079e-05	
85	8.500000e-01	5.000000e-01	4.498631e-05	
86	8.600000e-01	5.000000e-01	4.604425e-05	
87	8.700000e-01	5.000000e-01	4.715883e-05	
88	8.800000e-01	5.000000e-01	4.833441e-05	
89	8.900000e-01	5.000000e-01	4.957543e-05	
90	9.000000e-01	5.000000e-01	5.088635e-05	
91	9.100000e-01	5.000000e-01	5.227152e-05	
92	9.200000e-01	5.000000e-01	5.373510e-05	
93	9.300000e-01	5.000000e-01	5.528089e-05	
94	9.400000e-01	5.000000e-01	5.691223e-05	
95	9.500000e-01	5.000000e-01	5.863178e-05	
96	9.600000e-01	5.000000e-01	6.044143e-05	
97	9.700000e-01	5.000000e-01	6.234212e-05	
98	9.800000e-01	5.000000e-01	6.433373e-05	
99	9.900000e-01	5.000000e-01	6.641501e-05	
100	1.000000e+00	5.000000e-01	6.858353e-05	
101	1.010000e+00	5.000000e-01	7.083574e-05	
102	1.020000e+00	5.000000e-01	7.316702e-05	
103	1.030000e+00	5.000000e-01	7.557184e-05	
104	1.040000e+00	5.000000e-01	7.804393e-05	
105	1.050000e+00	5.000000e-01	8.058231e-05	
106	1.060000e+00	5.000000e-01	8.318687e-05	
107	1.070000e+00	5.000000e-01	8.584557e-05	
108	1.080000e+00	5.000000e-01	8.854770e-05	
109	1.090000e+00	5.000000e-01	9.128396e-05	
110	1.100000e+00	5.000000e-01	9.404628e-05	
111	1.110000e+00	5.000000e-01	9.682776e-05	
112	1.120000e+00	5.000000e-01	9.962253e-05	

Index   v-sweep         v(g)            vs#branch       
--------------------------------------------------------------------------------
113	1.130000e+00	5.000000e-01	1.024256e-04	
114	1.140000e+00	5.000000e-01	1.052330e-04	
115	1.150000e+00	5.000000e-01	1.080412e-04	
116	1.160000e+00	5.000000e-01	1.108476e-04	
117	1.170000e+00	5.000000e-01	1.136500e-04	
118	1.180000e+00	5.000000e-01	1.164468e-04	
119	1.190000e+00	5.000000e-01	1.192366e-04	
120	1.200000e+00	5.000000e-01	1.220186e-04	
121	1.210000e+00	5.000000e-01	1.247920e-04	
122	1.220000e+00	5.000000e-01	1.275565e-04	
123	1.230000e+00	5.000000e-01	1.303118e-04	
124	1.240000e+00	5.000000e-01	1.330578e-04	
125	1.250000e+00	5.000000e-01	1.357945e-04	
126	1.260000e+00	5.000000e-01	1.385220e-04	
127	1.270000e+00	5.000000e-01	1.412405e-04	
128	1.280000e+00	5.000000e-01	1.439502e-04	
129	1.290000e+00	5.000000e-01	1.466515e-04	
130	1.300000e+00	5.000000e-01	1.493446e-04	
131	1.310000e+00	5.000000e-01	1.520297e-04	
132	1.320000e+00	5.000000e-01	1.547074e-04	
133	1.330000e+00	5.000000e-01	1.573778e-04	
134	1.340000e+00	5.000000e-01	1.600413e-04	
135	1.350000e+00	5.000000e-01	1.626982e-04	
136	1.360000e+00	5.000000e-01	1.653488e-04	
137	1.370000e+00	5.000000e-01	1.679935e-04	
138	1.380000e+00	5.000000e-01	1.706326e-04	
139	1.390000e+00	5.000000e-01	1.732663e-04	
140	1.400000e+00	5.000000e-01	1.758949e-04	
141	1.410000e+00	5.000000e-01	1.785186e-04	
142	1.420000e+00	5.000000e-01	1.811378e-04	
143	1.430000e+00	5.000000e-01	1.837527e-04	
144	1.440000e+00	5.000000e-01	1.863635e-04	
145	1.450000e+00	5.000000e-01	1.889703e-04	
146	1.460000e+00	5.000000e-01	1.915735e-04	
147	1.470000e+00	5.000000e-01	1.941732e-04	
148	1.480000e+00	5.000000e-01	1.967696e-04	
149	1.490000e+00	5.000000e-01	1.993629e-04	
150	1.500000e+00	5.000000e-01	2.019532e-04	
151	1.510000e+00	5.000000e-01	2.045407e-04	
152	1.520000e+00	5.000000e-01	2.071256e-04	
153	1.530000e+00	5.000000e-01	2.097079e-04	
154	1.540000e+00	5.000000e-01	2.122879e-04	
155	1.550000e+00	5.000000e-01	2.148655e-04	
156	1.560000e+00	5.000000e-01	2.174410e-04	
157	1.570000e+00	5.000000e-01	2.200145e-04	
158	1.580000e+00	5.000000e-01	2.225860e-04	
159	1.590000e+00	5.000000e-01	2.251557e-04	
160	1.600000e+00	5.000000e-01	2.277237e-04	
161	1.610000e+00	5.000000e-01	2.302899e-04	
162	1.620000e+00	5.000000e-01	2.328546e-04	
163	1.630000e+00	5.000000e-01	2.354177e-04	
164	1.640000e+00	5.000000e-01	2.379794e-04	
165	1.650000e+00	5.000000e-01	2.405397e-04	
166	1.660000e+00	5.000000e-01	2.430987e-04	
167	1.670000e+00	5.000000e-01	2.456564e-04	
168	1.680000e+00	5.000000e-01	2.482128e-04	
169	1.690000e+00	5.000000e-01	2.507681e-04	
170	1.700000e+00	5.000000e-01	2.533222e-04	

Index   v-sweep         v(g)            vs#branch       
--------------------------------------------------------------------------------
171	1.710000e+00	5.000000e-01	2.558751e-04	
172	1.720000e+00	5.000000e-01	2.584270e-04	
173	1.730000e+00	5.000000e-01	2.609777e-04	
174	1.740000e+00	5.000000e-01	2.635274e-04	
175	1.750000e+00	5.000000e-01	2.660761e-04	
176	1.760000e+00	5.000000e-01	2.686237e-04	
177	1.770000e+00	5.000000e-01	2.711703e-04	
178	1.780000e+00	5.000000e-01	2.737158e-04	
179	1.790000e+00	5.000000e-01	2.762603e-04	
180	1.800000e+00	5.000000e-01	2.788038e-04	
181	1.810000e+00	5.000000e-01	2.813462e-04	
182	1.820000e+00	5.000000e-01	2.838875e-04	
183	1.830000e+00	5.000000e-01	2.864278e-04	
184	1.840000e+00	5.000000e-01	2.889670e-04	
185	1.850000e+00	5.000000e-01	2.915051e-04	
186	1.860000e+00	5.000000e-01	2.940420e-04	
187	1.870000e+00	5.000000e-01	2.965778e-04	
188	1.880000e+00	5.000000e-01	2.991125e-04	
189	1.890000e+00	5.000000e-01	3.016459e-04	
190	1.900000e+00	5.000000e-01	3.041781e-04	
191	1.910000e+00	5.000000e-01	3.067091e-04	
192	1.920000e+00	5.000000e-01	3.092388e-04	
193	1.930000e+00	5.000000e-01	3.117672e-04	
194	1.940000e+00	5.000000e-01	3.142942e-04	
195	1.950000e+00	5.000000e-01	3.168199e-04	
196	1.960000e+00	5.000000e-01	3.193443e-04	
197	1.970000e+00	5.000000e-01	3.218672e-04	
198	1.980000e+00	5.000000e-01	3.243886e-04	
199	1.990000e+00	5.000000e-01	3.269087e-04	
200	2.000000e+00	5.000000e-01	3.294272e-04	
201	2.010000e+00	5.000000e-01	3.319443e-04	
202	2.020000e+00	5.000000e-01	3.344598e-04	
203	2.030000e+00	5.000000e-01	3.369738e-04	
204	2.040000e+00	5.000000e-01	3.394862e-04	
205	2.050000e+00	5.000000e-01	3.419970e-04	
206	2.060000e+00	5.000000e-01	3.445063e-04	
207	2.070000e+00	5.000000e-01	3.470139e-04	
208	2.080000e+00	5.000000e-01	3.495199e-04	
209	2.090000e+00	5.000000e-01	3.520243e-04	
210	2.100000e+00	5.000000e-01	3.545270e-04	
211	2.110000e+00	5.000000e-01	3.570280e-04	
212	2.120000e+00	5.000000e-01	3.595274e-04	
213	2.130000e+00	5.000000e-01	3.620251e-04	
214	2.140000e+00	5.000000e-01	3.645212e-04	
215	2.150000e+00	5.000000e-01	3.670155e-04	
216	2.160000e+00	5.000000e-01	3.695081e-04	
217	2.170000e+00	5.000000e-01	3.719991e-04	
218	2.180000e+00	5.000000e-01	3.744883e-04	
219	2.190000e+00	5.000000e-01	3.769759e-04	
220	2.200000e+00	5.000000e-01	3.794618e-04	
221	2.210000e+00	5.000000e-01	3.819459e-04	
222	2.220000e+00	5.000000e-01	3.844284e-04	
223	2.230000e+00	5.000000e-01	3.869091e-04	
224	2.240000e+00	5.000000e-01	3.893882e-04	
225	2.250000e+00	5.000000e-01	3.918656e-04	
226	2.260000e+00	5.000000e-01	3.943413e-04	
227	2.270000e+00	5.000000e-01	3.968154e-04	
228	2.280000e+00	5.000000e-01	3.992877e-04	

Index   v-sweep         v(g)            vs#branch       
--------------------------------------------------------------------------------
229	2.290000e+00	5.000000e-01	4.017584e-04	
230	2.300000e+00	5.000000e-01	4.042275e-04	
231	2.310000e+00	5.000000e-01	4.066948e-04	
232	2.320000e+00	5.000000e-01	4.091606e-04	
233	2.330000e+00	5.000000e-01	4.116247e-04	
234	2.340000e+00	5.000000e-01	4.140872e-04	
235	2.350000e+00	5.000000e-01	4.165481e-04	
236	2.360000e+00	5.000000e-01	4.190074e-04	
237	2.370000e+00	5.000000e-01	4.214651e-04	
238	2.380000e+00	5.000000e-01	4.239212e-04	
239	2.390000e+00	5.000000e-01	4.263757e-04	
240	2.400000e+00	5.000000e-01	4.288287e-04	
241	2.410000e+00	5.000000e-01	4.312801e-04	
242	2.420000e+00	5.000000e-01	4.337300e-04	
243	2.430000e+00	5.000000e-01	4.361783e-04	
244	2.440000e+00	5.000000e-01	4.386252e-04	
245	2.450000e+00	5.000000e-01	4.410705e-04	
246	2.460000e+00	5.000000e-01	4.435144e-04	
247	2.470000e+00	5.000000e-01	4.459567e-04	
248	2.480000e+00	5.000000e-01	4.483977e-04	
249	2.490000e+00	5.000000e-01	4.508371e-04	
250	2.500000e+00	5.000000e-01	4.532752e-04	
251	2.510000e+00	5.000000e-01	4.557118e-04	
252	2.520000e+00	5.000000e-01	4.581470e-04	
253	2.530000e+00	5.000000e-01	4.605808e-04	
254	2.540000e+00	5.000000e-01	4.630132e-04	
255	2.550000e+00	5.000000e-01	4.654442e-04	
256	2.560000e+00	5.000000e-01	4.678739e-04	
257	2.570000e+00	5.000000e-01	4.703023e-04	
258	2.580000e+00	5.000000e-01	4.727293e-04	
259	2.590000e+00	5.000000e-01	4.751551e-04	
260	2.600000e+00	5.000000e-01	4.775795e-04	
261	2.610000e+00	5.000000e-01	4.800026e-04	
262	2.620000e+00	5.000000e-01	4.824245e-04	
263	2.630000e+00	5.000000e-01	4.848452e-04	
264	2.640000e+00	5.000000e-01	4.872645e-04	
265	2.650000e+00	5.000000e-01	4.896827e-04	
266	2.660000e+00	5.000000e-01	4.920997e-04	
267	2.670000e+00	5.000000e-01	4.945154e-04	
268	2.680000e+00	5.000000e-01	4.969300e-04	
269	2.690000e+00	5.000000e-01	4.993434e-04	
270	2.700000e+00	5.000000e-01	5.017557e-04	
271	2.710000e+00	5.000000e-01	5.041668e-04	
272	2.720000e+00	5.000000e-01	5.065768e-04	
273	2.730000e+00	5.000000e-01	5.089857e-04	
274	2.740000e+00	5.000000e-01	5.113935e-04	
275	2.750000e+00	5.000000e-01	5.138003e-04	
276	2.760000e+00	5.000000e-01	5.162060e-04	
277	2.770000e+00	5.000000e-01	5.186106e-04	
278	2.780000e+00	5.000000e-01	5.210142e-04	
279	2.790000e+00	5.000000e-01	5.234168e-04	
280	2.800000e+00	5.000000e-01	5.258184e-04	
281	2.810000e+00	5.000000e-01	5.282190e-04	
282	2.820000e+00	5.000000e-01	5.306187e-04	
283	2.830000e+00	5.000000e-01	5.330174e-04	
284	2.840000e+00	5.000000e-01	5.354151e-04	
285	2.850000e+00	5.000000e-01	5.378119e-04	
286	2.860000e+00	5.000000e-01	5.402079e-04	

Index   v-sweep         v(g)            vs#branch       
--------------------------------------------------------------------------------
287	2.870000e+00	5.000000e-01	5.426029e-04	
288	2.880000e+00	5.000000e-01	5.449971e-04	
289	2.890000e+00	5.000000e-01	5.473904e-04	
290	2.900000e+00	5.000000e-01	5.497828e-04	
291	2.910000e+00	5.000000e-01	5.521744e-04	
292	2.920000e+00	5.000000e-01	5.545652e-04	
293	2.930000e+00	5.000000e-01	5.569552e-04	
294	2.940000e+00	5.000000e-01	5.593445e-04	
295	2.950000e+00	5.000000e-01	5.617329e-04	
296	2.960000e+00	5.000000e-01	5.641206e-04	
297	2.970000e+00	5.000000e-01	5.665076e-04	
298	2.980000e+00	5.000000e-01	5.688938e-04	
299	2.990000e+00	5.000000e-01	5.712793e-04	
300	3.000000e+00	5.000000e-01	5.736642e-04	
301	0.000000e+00	1.000000e+00	0.000000e+00	
302	1.000000e-02	1.000000e+00	3.715408e-05	
303	2.000000e-02	1.000000e+00	7.321271e-05	
304	3.000000e-02	1.000000e+00	1.081949e-04	
305	4.000000e-02	1.000000e+00	1.421186e-04	
306	5.000000e-02	1.000000e+00	1.750005e-04	
307	6.000000e-02	1.000000e+00	2.068564e-04	
308	7.000000e-02	1.000000e+00	2.377013e-04	
309	8.000000e-02	1.000000e+00	2.675495e-04	
310	9.000000e-02	1.000000e+00	2.964147e-04	
311	1.000000e-01	1.000000e+00	3.243101e-04	
312	1.100000e-01	1.000000e+00	3.512487e-04	
313	1.200000e-01	1.000000e+00	3.772430e-04	
314	1.300000e-01	1.000000e+00	4.023054e-04	
315	1.400000e-01	1.000000e+00	4.264481e-04	
316	1.500000e-01	1.000000e+00	4.496832e-04	
317	1.600000e-01	1.000000e+00	4.720227e-04	
318	1.700000e-01	1.000000e+00	4.934786e-04	
319	1.800000e-01	1.000000e+00	5.140630e-04	
320	1.900000e-01	1.000000e+00	5.337879e-04	
321	2.000000e-01	1.000000e+00	5.526656e-04	
322	2.100000e-01	1.000000e+00	5.707084e-04	
323	2.200000e-01	1.000000e+00	5.879290e-04	
324	2.300000e-01	1.000000e+00	6.043404e-04	
325	2.400000e-01	1.000000e+00	6.199559e-04	
326	2.500000e-01	1.000000e+00	6.347896e-04	
327	2.600000e-01	1.000000e+00	6.488563e-04	
328	2.700000e-01	1.000000e+00	6.621718e-04	
329	2.800000e-01	1.000000e+00	6.747529e-04	
330	2.900000e-01	1.000000e+00	6.866183e-04	
331	3.000000e-01	1.000000e+00	6.977880e-04	
332	3.100000e-01	1.000000e+00	7.082847e-04	
333	3.200000e-01	1.000000e+00	7.181329e-04	
334	3.300000e-01	1.000000e+00	7.273605e-04	
335	3.400000e-01	1.000000e+00	7.359979e-04	
336	3.500000e-01	1.000000e+00	7.440786e-04	
337	3.600000e-01	1.000000e+00	7.516390e-04	
338	3.700000e-01	1.000000e+00	7.587180e-04	
339	3.800000e-01	1.000000e+00	7.653560e-04	
340	3.900000e-01	1.000000e+00	7.715946e-04	
341	4.000000e-01	1.000000e+00	7.774752e-04	
342	4.100000e-01	1.000000e+00	7.830380e-04	
343	4.200000e-01	1.000000e+00	7.883212e-04	
344	4.300000e-01	1.000000e+00	7.933605e-04	

Index   v-sweep         v(g)            vs#branch       
--------------------------------------------------------------------------------
345	4.400000e-01	1.000000e+00	7.981881e-04	
346	4.500000e-01	1.000000e+00	8.028328e-04	
347	4.600000e-01	1.000000e+00	8.073203e-04	
348	4.700000e-01	1.000000e+00	8.116726e-04	
349	4.800000e-01	1.000000e+00	8.159089e-04	
350	4.900000e-01	1.000000e+00	8.200459e-04	
351	5.000000e-01	1.000000e+00	8.240975e-04	
352	5.100000e-01	1.000000e+00	8.280761e-04	
353	5.200000e-01	1.000000e+00	8.319920e-04	
354	5.300000e-01	1.000000e+00	8.358543e-04	
355	5.400000e-01	1.000000e+00	8.396708e-04	
356	5.500000e-01	1.000000e+00	8.434483e-04	
357	5.600000e-01	1.000000e+00	8.471929e-04	
358	5.700000e-01	1.000000e+00	8.509100e-04	
359	5.800000e-01	1.000000e+00	8.546047e-04	
360	5.900000e-01	1.000000e+00	8.582814e-04	
361	6.000000e-01	1.000000e+00	8.619447e-04	
362	6.100000e-01	1.000000e+00	8.655988e-04	
363	6.200000e-01	1.000000e+00	8.692478e-04	
364	6.300000e-01	1.000000e+00	8.728962e-04	
365	6.400000e-01	1.000000e+00	8.765484e-04	
366	6.500000e-01	1.000000e+00	8.802092e-04	
367	6.600000e-01	1.000000e+00	8.838836e-04	
368	6.700000e-01	1.000000e+00	8.875774e-04	
369	6.800000e-01	1.000000e+00	8.912966e-04	
370	6.900000e-01	1.000000e+00	8.950480e-04	
371	7.000000e-01	1.000000e+00	8.988392e-04	
372	7.100000e-01	1.000000e+00	9.026785e-04	
373	7.200000e-01	1.000000e+00	9.065754e-04	
374	7.300000e-01	1.000000e+00	9.105399e-04	
375	7.400000e-01	1.000000e+00	9.145835e-04	
376	7.500000e-01	1.000000e+00	9.187186e-04	
377	7.600000e-01	1.000000e+00	9.229585e-04	
378	7.700000e-01	1.000000e+00	9.273179e-04	
379	7.800000e-01	1.000000e+00	9.318122e-04	
380	7.900000e-01	1.000000e+00	9.364577e-04	
381	8.000000e-01	1.000000e+00	9.412713e-04	
382	8.100000e-01	1.000000e+00	9.462701e-04	
383	8.200000e-01	1.000000e+00	9.514714e-04	
384	8.300000e-01	1.000000e+00	9.568920e-04	
385	8.400000e-01	1.000000e+00	9.625477e-04	
386	8.500000e-01	1.000000e+00	9.684529e-04	
387	8.600000e-01	1.000000e+00	9.746199e-04	
388	8.700000e-01	1.000000e+00	9.810583e-04	
389	8.800000e-01	1.000000e+00	9.877746e-04	
390	8.900000e-01	1.000000e+00	9.947716e-04	
391	9.000000e-01	1.000000e+00	1.002048e-03	
392	9.100000e-01	1.000000e+00	1.009598e-03	
393	9.200000e-01	1.000000e+00	1.017412e-03	
394	9.300000e-01	1.000000e+00	1.025476e-03	
395	9.400000e-01	1.000000e+00	1.033770e-03	
396	9.500000e-01	1.000000e+00	1.042275e-03	
397	9.600000e-01	1.000000e+00	1.050964e-03	
398	9.700000e-01	1.000000e+00	1.059812e-03	
399	9.800000e-01	1.000000e+00	1.068790e-03	
400	9.900000e-01	1.000000e+00	1.077870e-03	
401	1.000000e+00	1.000000e+00	1.087023e-03	
402	1.010000e+00	1.000000e+00	1.096235e-03	

Index   v-sweep         v(g)            vs#branch       
--------------------------------------------------------------------------------
403	1.020000e+00	1.000000e+00	1.105510e-03	
404	1.030000e+00	1.000000e+00	1.114806e-03	
405	1.040000e+00	1.000000e+00	1.124089e-03	
406	1.050000e+00	1.000000e+00	1.133328e-03	
407	1.060000e+00	1.000000e+00	1.142505e-03	
408	1.070000e+00	1.000000e+00	1.151600e-03	
409	1.080000e+00	1.000000e+00	1.160604e-03	
410	1.090000e+00	1.000000e+00	1.169505e-03	
411	1.100000e+00	1.000000e+00	1.178298e-03	
412	1.110000e+00	1.000000e+00	1.186980e-03	
413	1.120000e+00	1.000000e+00	1.195547e-03	
414	1.130000e+00	1.000000e+00	1.203999e-03	
415	1.140000e+00	1.000000e+00	1.212338e-03	
416	1.150000e+00	1.000000e+00	1.220563e-03	
417	1.160000e+00	1.000000e+00	1.228678e-03	
418	1.170000e+00	1.000000e+00	1.236685e-03	
419	1.180000e+00	1.000000e+00	1.244587e-03	
420	1.190000e+00	1.000000e+00	1.252387e-03	
421	1.200000e+00	1.000000e+00	1.260089e-03	
422	1.210000e+00	1.000000e+00	1.267696e-03	
423	1.220000e+00	1.000000e+00	1.275211e-03	
424	1.230000e+00	1.000000e+00	1.282639e-03	
425	1.240000e+00	1.000000e+00	1.289982e-03	
426	1.250000e+00	1.000000e+00	1.297245e-03	
427	1.260000e+00	1.000000e+00	1.304429e-03	
428	1.270000e+00	1.000000e+00	1.311538e-03	
429	1.280000e+00	1.000000e+00	1.318575e-03	
430	1.290000e+00	1.000000e+00	1.325543e-03	
431	1.300000e+00	1.000000e+00	1.332444e-03	
432	1.310000e+00	1.000000e+00	1.339281e-03	
433	1.320000e+00	1.000000e+00	1.346057e-03	
434	1.330000e+00	1.000000e+00	1.352774e-03	
435	1.340000e+00	1.000000e+00	1.359434e-03	
436	1.350000e+00	1.000000e+00	1.366039e-03	
437	1.360000e+00	1.000000e+00	1.372591e-03	
438	1.370000e+00	1.000000e+00	1.379092e-03	
439	1.380000e+00	1.000000e+00	1.385543e-03	
440	1.390000e+00	1.000000e+00	1.391947e-03	
441	1.400000e+00	1.000000e+00	1.398305e-03	
442	1.410000e+00	1.000000e+00	1.404619e-03	
443	1.420000e+00	1.000000e+00	1.410889e-03	
444	1.430000e+00	1.000000e+00	1.417118e-03	
445	1.440000e+00	1.000000e+00	1.423307e-03	
446	1.450000e+00	1.000000e+00	1.429456e-03	
447	1.460000e+00	1.000000e+00	1.435567e-03	
448	1.470000e+00	1.000000e+00	1.441642e-03	
449	1.480000e+00	1.000000e+00	1.447681e-03	
450	1.490000e+00	1.000000e+00	1.453685e-03	
451	1.500000e+00	1.000000e+00	1.459655e-03	
452	1.510000e+00	1.000000e+00	1.465593e-03	
453	1.520000e+00	1.000000e+00	1.471498e-03	
454	1.530000e+00	1.000000e+00	1.477373e-03	
455	1.540000e+00	1.000000e+00	1.483217e-03	
456	1.550000e+00	1.000000e+00	1.489031e-03	
457	1.560000e+00	1.000000e+00	1.494816e-03	
458	1.570000e+00	1.000000e+00	1.500574e-03	
459	1.580000e+00	1.000000e+00	1.506303e-03	
460	1.590000e+00	1.000000e+00	1.512006e-03	

Index   v-sweep         v(g)            vs#branch       
--------------------------------------------------------------------------------
461	1.600000e+00	1.000000e+00	1.517683e-03	
462	1.610000e+00	1.000000e+00	1.523333e-03	
463	1.620000e+00	1.000000e+00	1.528959e-03	
464	1.630000e+00	1.000000e+00	1.534559e-03	
465	1.640000e+00	1.000000e+00	1.540135e-03	
466	1.650000e+00	1.000000e+00	1.545688e-03	
467	1.660000e+00	1.000000e+00	1.551217e-03	
468	1.670000e+00	1.000000e+00	1.556722e-03	
469	1.680000e+00	1.000000e+00	1.562206e-03	
470	1.690000e+00	1.000000e+00	1.567666e-03	
471	1.700000e+00	1.000000e+00	1.573105e-03	
472	1.710000e+00	1.000000e+00	1.578522e-03	
473	1.720000e+00	1.000000e+00	1.583918e-03	
474	1.730000e+00	1.000000e+00	1.589292e-03	
475	1.740000e+00	1.000000e+00	1.594646e-03	
476	1.750000e+00	1.000000e+00	1.599979e-03	
477	1.760000e+00	1.000000e+00	1.605292e-03	
478	1.770000e+00	1.000000e+00	1.610585e-03	
479	1.780000e+00	1.000000e+00	1.615858e-03	
480	1.790000e+00	1.000000e+00	1.621111e-03	
481	1.800000e+00	1.000000e+00	1.626345e-03	
482	1.810000e+00	1.000000e+00	1.631560e-03	
483	1.820000e+00	1.000000e+00	1.636755e-03	
484	1.830000e+00	1.000000e+00	1.641932e-03	
485	1.840000e+00	1.000000e+00	1.647090e-03	
486	1.850000e+00	1.000000e+00	1.652230e-03	
487	1.860000e+00	1.000000e+00	1.657351e-03	
488	1.870000e+00	1.000000e+00	1.662455e-03	
489	1.880000e+00	1.000000e+00	1.667541e-03	
490	1.890000e+00	1.000000e+00	1.672608e-03	
491	1.900000e+00	1.000000e+00	1.677659e-03	
492	1.910000e+00	1.000000e+00	1.682692e-03	
493	1.920000e+00	1.000000e+00	1.687708e-03	
494	1.930000e+00	1.000000e+00	1.692707e-03	
495	1.940000e+00	1.000000e+00	1.697689e-03	
496	1.950000e+00	1.000000e+00	1.702655e-03	
497	1.960000e+00	1.000000e+00	1.707605e-03	
498	1.970000e+00	1.000000e+00	1.712538e-03	
499	1.980000e+00	1.000000e+00	1.717455e-03	
500	1.990000e+00	1.000000e+00	1.722356e-03	
501	2.000000e+00	1.000000e+00	1.727241e-03	
502	2.010000e+00	1.000000e+00	1.732111e-03	
503	2.020000e+00	1.000000e+00	1.736966e-03	
504	2.030000e+00	1.000000e+00	1.741805e-03	
505	2.040000e+00	1.000000e+00	1.746630e-03	
506	2.050000e+00	1.000000e+00	1.751439e-03	
507	2.060000e+00	1.000000e+00	1.756234e-03	
508	2.070000e+00	1.000000e+00	1.761015e-03	
509	2.080000e+00	1.000000e+00	1.765781e-03	
510	2.090000e+00	1.000000e+00	1.770533e-03	
511	2.100000e+00	1.000000e+00	1.775271e-03	
512	2.110000e+00	1.000000e+00	1.779995e-03	
513	2.120000e+00	1.000000e+00	1.784706e-03	
514	2.130000e+00	1.000000e+00	1.789403e-03	
515	2.140000e+00	1.000000e+00	1.794087e-03	
516	2.150000e+00	1.000000e+00	1.798757e-03	
517	2.160000e+00	1.000000e+00	1.803415e-03	
518	2.170000e+00	1.000000e+00	1.808059e-03	

Index   v-sweep         v(g)            vs#branch       
--------------------------------------------------------------------------------
519	2.180000e+00	1.000000e+00	1.812691e-03	
520	2.190000e+00	1.000000e+00	1.817311e-03	
521	2.200000e+00	1.000000e+00	1.821918e-03	
522	2.210000e+00	1.000000e+00	1.826512e-03	
523	2.220000e+00	1.000000e+00	1.831095e-03	
524	2.230000e+00	1.000000e+00	1.835666e-03	
525	2.240000e+00	1.000000e+00	1.840225e-03	
526	2.250000e+00	1.000000e+00	1.844772e-03	
527	2.260000e+00	1.000000e+00	1.849307e-03	
528	2.270000e+00	1.000000e+00	1.853832e-03	
529	2.280000e+00	1.000000e+00	1.858345e-03	
530	2.290000e+00	1.000000e+00	1.862846e-03	
531	2.300000e+00	1.000000e+00	1.867337e-03	
532	2.310000e+00	1.000000e+00	1.871817e-03	
533	2.320000e+00	1.000000e+00	1.876286e-03	
534	2.330000e+00	1.000000e+00	1.880745e-03	
535	2.340000e+00	1.000000e+00	1.885193e-03	
536	2.350000e+00	1.000000e+00	1.889631e-03	
537	2.360000e+00	1.000000e+00	1.894059e-03	
538	2.370000e+00	1.000000e+00	1.898476e-03	
539	2.380000e+00	1.000000e+00	1.902884e-03	
540	2.390000e+00	1.000000e+00	1.907281e-03	
541	2.400000e+00	1.000000e+00	1.911669e-03	
542	2.410000e+00	1.000000e+00	1.916047e-03	
543	2.420000e+00	1.000000e+00	1.920416e-03	
544	2.430000e+00	1.000000e+00	1.924776e-03	
545	2.440000e+00	1.000000e+00	1.929126e-03	
546	2.450000e+00	1.000000e+00	1.933467e-03	
547	2.460000e+00	1.000000e+00	1.937798e-03	
548	2.470000e+00	1.000000e+00	1.942121e-03	
549	2.480000e+00	1.000000e+00	1.946435e-03	
550	2.490000e+00	1.000000e+00	1.950741e-03	
551	2.500000e+00	1.000000e+00	1.955037e-03	
552	2.510000e+00	1.000000e+00	1.959326e-03	
553	2.520000e+00	1.000000e+00	1.963605e-03	
554	2.530000e+00	1.000000e+00	1.967877e-03	
555	2.540000e+00	1.000000e+00	1.972140e-03	
556	2.550000e+00	1.000000e+00	1.976395e-03	
557	2.560000e+00	1.000000e+00	1.980642e-03	
558	2.570000e+00	1.000000e+00	1.984881e-03	
559	2.580000e+00	1.000000e+00	1.989113e-03	
560	2.590000e+00	1.000000e+00	1.993336e-03	
561	2.600000e+00	1.000000e+00	1.997552e-03	
562	2.610000e+00	1.000000e+00	2.001761e-03	
563	2.620000e+00	1.000000e+00	2.005962e-03	
564	2.630000e+00	1.000000e+00	2.010156e-03	
565	2.640000e+00	1.000000e+00	2.014342e-03	
566	2.650000e+00	1.000000e+00	2.018521e-03	
567	2.660000e+00	1.000000e+00	2.022693e-03	
568	2.670000e+00	1.000000e+00	2.026859e-03	
569	2.680000e+00	1.000000e+00	2.031017e-03	
570	2.690000e+00	1.000000e+00	2.035168e-03	
571	2.700000e+00	1.000000e+00	2.039313e-03	
572	2.710000e+00	1.000000e+00	2.043451e-03	
573	2.720000e+00	1.000000e+00	2.047582e-03	
574	2.730000e+00	1.000000e+00	2.051707e-03	
575	2.740000e+00	1.000000e+00	2.055826e-03	
576	2.750000e+00	1.000000e+00	2.059938e-03	

Index   v-sweep         v(g)            vs#branch       
--------------------------------------------------------------------------------
577	2.760000e+00	1.000000e+00	2.064044e-03	
578	2.770000e+00	1.000000e+00	2.068144e-03	
579	2.780000e+00	1.000000e+00	2.072238e-03	
580	2.790000e+00	1.000000e+00	2.076326e-03	
581	2.800000e+00	1.000000e+00	2.080407e-03	
582	2.810000e+00	1.000000e+00	2.084483e-03	
583	2.820000e+00	1.000000e+00	2.088554e-03	
584	2.830000e+00	1.000000e+00	2.092618e-03	
585	2.840000e+00	1.000000e+00	2.096677e-03	
586	2.850000e+00	1.000000e+00	2.100730e-03	
587	2.860000e+00	1.000000e+00	2.104778e-03	
588	2.870000e+00	1.000000e+00	2.108821e-03	
589	2.880000e+00	1.000000e+00	2.112858e-03	
590	2.890000e+00	1.000000e+00	2.116890e-03	
591	2.900000e+00	1.000000e+00	2.120917e-03	
592	2.910000e+00	1.000000e+00	2.124938e-03	
593	2.920000e+00	1.000000e+00	2.128955e-03	
594	2.930000e+00	1.000000e+00	2.132966e-03	
595	2.940000e+00	1.000000e+00	2.136973e-03	
596	2.950000e+00	1.000000e+00	2.140975e-03	
597	2.960000e+00	1.000000e+00	2.144972e-03	
598	2.970000e+00	1.000000e+00	2.148964e-03	
599	2.980000e+00	1.000000e+00	2.152952e-03	
600	2.990000e+00	1.000000e+00	2.156935e-03	
601	3.000000e+00	1.000000e+00	2.160913e-03	
602	0.000000e+00	1.500000e+00	0.000000e+00	
603	1.000000e-02	1.500000e+00	6.670045e-05	
604	2.000000e-02	1.500000e+00	1.321933e-04	
605	3.000000e-02	1.500000e+00	1.964976e-04	
606	4.000000e-02	1.500000e+00	2.596311e-04	
607	5.000000e-02	1.500000e+00	3.216106e-04	
608	6.000000e-02	1.500000e+00	3.824518e-04	
609	7.000000e-02	1.500000e+00	4.421697e-04	
610	8.000000e-02	1.500000e+00	5.007785e-04	
611	9.000000e-02	1.500000e+00	5.582918e-04	
612	1.000000e-01	1.500000e+00	6.147226e-04	
613	1.100000e-01	1.500000e+00	6.700838e-04	
614	1.200000e-01	1.500000e+00	7.243877e-04	
615	1.300000e-01	1.500000e+00	7.776464e-04	
616	1.400000e-01	1.500000e+00	8.298717e-04	
617	1.500000e-01	1.500000e+00	8.810753e-04	
618	1.600000e-01	1.500000e+00	9.312687e-04	
619	1.700000e-01	1.500000e+00	9.804632e-04	
620	1.800000e-01	1.500000e+00	1.028670e-03	
621	1.900000e-01	1.500000e+00	1.075900e-03	
622	2.000000e-01	1.500000e+00	1.122164e-03	
623	2.100000e-01	1.500000e+00	1.167473e-03	
624	2.200000e-01	1.500000e+00	1.211838e-03	
625	2.300000e-01	1.500000e+00	1.255268e-03	
626	2.400000e-01	1.500000e+00	1.297774e-03	
627	2.500000e-01	1.500000e+00	1.339366e-03	
628	2.600000e-01	1.500000e+00	1.380055e-03	
629	2.700000e-01	1.500000e+00	1.419849e-03	
630	2.800000e-01	1.500000e+00	1.458758e-03	
631	2.900000e-01	1.500000e+00	1.496792e-03	
632	3.000000e-01	1.500000e+00	1.533960e-03	
633	3.100000e-01	1.500000e+00	1.570271e-03	
634	3.200000e-01	1.500000e+00	1.605734e-03	

Index   v-sweep         v(g)            vs#branch       
--------------------------------------------------------------------------------
635	3.300000e-01	1.500000e+00	1.640358e-03	
636	3.400000e-01	1.500000e+00	1.674151e-03	
637	3.500000e-01	1.500000e+00	1.707121e-03	
638	3.600000e-01	1.500000e+00	1.739278e-03	
639	3.700000e-01	1.500000e+00	1.770629e-03	
640	3.800000e-01	1.500000e+00	1.801181e-03	
641	3.900000e-01	1.500000e+00	1.830945e-03	
642	4.000000e-01	1.500000e+00	1.859926e-03	
643	4.100000e-01	1.500000e+00	1.888133e-03	
644	4.200000e-01	1.500000e+00	1.915573e-03	
645	4.300000e-01	1.500000e+00	1.942254e-03	
646	4.400000e-01	1.500000e+00	1.968183e-03	
647	4.500000e-01	1.500000e+00	1.993369e-03	
648	4.600000e-01	1.500000e+00	2.017818e-03	
649	4.700000e-01	1.500000e+00	2.041537e-03	
650	4.800000e-01	1.500000e+00	2.064536e-03	
651	4.900000e-01	1.500000e+00	2.086820e-03	
652	5.000000e-01	1.500000e+00	2.108399e-03	
653	5.100000e-01	1.500000e+00	2.129280e-03	
654	5.200000e-01	1.500000e+00	2.149471e-03	
655	5.300000e-01	1.500000e+00	2.168980e-03	
656	5.400000e-01	1.500000e+00	2.187818e-03	
657	5.500000e-01	1.500000e+00	2.205994e-03	
658	5.600000e-01	1.500000e+00	2.223517e-03	
659	5.700000e-01	1.500000e+00	2.240398e-03	
660	5.800000e-01	1.500000e+00	2.256651e-03	
661	5.900000e-01	1.500000e+00	2.272286e-03	
662	6.000000e-01	1.500000e+00	2.287319e-03	
663	6.100000e-01	1.500000e+00	2.301764e-03	
664	6.200000e-01	1.500000e+00	2.315639e-03	
665	6.300000e-01	1.500000e+00	2.328962e-03	
666	6.400000e-01	1.500000e+00	2.341751e-03	
667	6.500000e-01	1.500000e+00	2.354030e-03	
668	6.600000e-01	1.500000e+00	2.365820e-03	
669	6.700000e-01	1.500000e+00	2.377145e-03	
670	6.800000e-01	1.500000e+00	2.388030e-03	
671	6.900000e-01	1.500000e+00	2.398501e-03	
672	7.000000e-01	1.500000e+00	2.408585e-03	
673	7.100000e-01	1.500000e+00	2.418308e-03	
674	7.200000e-01	1.500000e+00	2.427696e-03	
675	7.300000e-01	1.500000e+00	2.436777e-03	
676	7.400000e-01	1.500000e+00	2.445575e-03	
677	7.500000e-01	1.500000e+00	2.454117e-03	
678	7.600000e-01	1.500000e+00	2.462427e-03	
679	7.700000e-01	1.500000e+00	2.470529e-03	
680	7.800000e-01	1.500000e+00	2.478448e-03	
681	7.900000e-01	1.500000e+00	2.486207e-03	
682	8.000000e-01	1.500000e+00	2.493829e-03	
683	8.100000e-01	1.500000e+00	2.501339e-03	
684	8.200000e-01	1.500000e+00	2.508758e-03	
685	8.300000e-01	1.500000e+00	2.516112e-03	
686	8.400000e-01	1.500000e+00	2.523425e-03	
687	8.500000e-01	1.500000e+00	2.530722e-03	
688	8.600000e-01	1.500000e+00	2.538031e-03	
689	8.700000e-01	1.500000e+00	2.545378e-03	
690	8.800000e-01	1.500000e+00	2.552793e-03	
691	8.900000e-01	1.500000e+00	2.560307e-03	
692	9.000000e-01	1.500000e+00	2.567949e-03	

Index   v-sweep         v(g)            vs#branch       
--------------------------------------------------------------------------------
693	9.100000e-01	1.500000e+00	2.575752e-03	
694	9.200000e-01	1.500000e+00	2.583749e-03	
695	9.300000e-01	1.500000e+00	2.591973e-03	
696	9.400000e-01	1.500000e+00	2.600454e-03	
697	9.500000e-01	1.500000e+00	2.609223e-03	
698	9.600000e-01	1.500000e+00	2.618309e-03	
699	9.700000e-01	1.500000e+00	2.627734e-03	
700	9.800000e-01	1.500000e+00	2.637519e-03	
701	9.900000e-01	1.500000e+00	2.647677e-03	
702	1.000000e+00	1.500000e+00	2.658216e-03	
703	1.010000e+00	1.500000e+00	2.669135e-03	
704	1.020000e+00	1.500000e+00	2.680429e-03	
705	1.030000e+00	1.500000e+00	2.692080e-03	
706	1.040000e+00	1.500000e+00	2.704067e-03	
707	1.050000e+00	1.500000e+00	2.716360e-03	
708	1.060000e+00	1.500000e+00	2.728925e-03	
709	1.070000e+00	1.500000e+00	2.741721e-03	
710	1.080000e+00	1.500000e+00	2.754706e-03	
711	1.090000e+00	1.500000e+00	2.767839e-03	
712	1.100000e+00	1.500000e+00	2.781123e-03	
713	1.110000e+00	1.500000e+00	2.794518e-03	
714	1.120000e+00	1.500000e+00	2.807957e-03	
715	1.130000e+00	1.500000e+00	2.821388e-03	
716	1.140000e+00	1.500000e+00	2.834765e-03	
717	1.150000e+00	1.500000e+00	2.848055e-03	
718	1.160000e+00	1.500000e+00	2.861230e-03	
719	1.170000e+00	1.500000e+00	2.874267e-03	
720	1.180000e+00	1.500000e+00	2.887153e-03	
721	1.190000e+00	1.500000e+00	2.899873e-03	
722	1.200000e+00	1.500000e+00	2.912422e-03	
723	1.210000e+00	1.500000e+00	2.924795e-03	
724	1.220000e+00	1.500000e+00	2.936989e-03	
725	1.230000e+00	1.500000e+00	2.949005e-03	
726	1.240000e+00	1.500000e+00	2.960845e-03	
727	1.250000e+00	1.500000e+00	2.972510e-03	
728	1.260000e+00	1.500000e+00	2.984006e-03	
729	1.270000e+00	1.500000e+00	2.995337e-03	
730	1.280000e+00	1.500000e+00	3.006507e-03	
731	1.290000e+00	1.500000e+00	3.017522e-03	
732	1.300000e+00	1.500000e+00	3.028386e-03	
733	1.310000e+00	1.500000e+00	3.039107e-03	
734	1.320000e+00	1.500000e+00	3.049688e-03	
735	1.330000e+00	1.500000e+00	3.060135e-03	
736	1.340000e+00	1.500000e+00	3.070454e-03	
737	1.350000e+00	1.500000e+00	3.080649e-03	
738	1.360000e+00	1.500000e+00	3.090725e-03	
739	1.370000e+00	1.500000e+00	3.100686e-03	
740	1.380000e+00	1.500000e+00	3.110538e-03	
741	1.390000e+00	1.500000e+00	3.120284e-03	
742	1.400000e+00	1.500000e+00	3.129929e-03	
743	1.410000e+00	1.500000e+00	3.139475e-03	
744	1.420000e+00	1.500000e+00	3.148928e-03	
745	1.430000e+00	1.500000e+00	3.158290e-03	
746	1.440000e+00	1.500000e+00	3.167564e-03	
747	1.450000e+00	1.500000e+00	3.176754e-03	
748	1.460000e+00	1.500000e+00	3.185863e-03	
749	1.470000e+00	1.500000e+00	3.194893e-03	
750	1.480000e+00	1.500000e+00	3.203847e-03	

Index   v-sweep         v(g)            vs#branch       
--------------------------------------------------------------------------------
751	1.490000e+00	1.500000e+00	3.212728e-03	
752	1.500000e+00	1.500000e+00	3.221538e-03	
753	1.510000e+00	1.500000e+00	3.230279e-03	
754	1.520000e+00	1.500000e+00	3.238954e-03	
755	1.530000e+00	1.500000e+00	3.247565e-03	
756	1.540000e+00	1.500000e+00	3.256113e-03	
757	1.550000e+00	1.500000e+00	3.264600e-03	
758	1.560000e+00	1.500000e+00	3.273029e-03	
759	1.570000e+00	1.500000e+00	3.281400e-03	
760	1.580000e+00	1.500000e+00	3.289716e-03	
761	1.590000e+00	1.500000e+00	3.297978e-03	
762	1.600000e+00	1.500000e+00	3.306187e-03	
763	1.610000e+00	1.500000e+00	3.314345e-03	
764	1.620000e+00	1.500000e+00	3.322454e-03	
765	1.630000e+00	1.500000e+00	3.330513e-03	
766	1.640000e+00	1.500000e+00	3.338525e-03	
767	1.650000e+00	1.500000e+00	3.346491e-03	
768	1.660000e+00	1.500000e+00	3.354412e-03	
769	1.670000e+00	1.500000e+00	3.362288e-03	
770	1.680000e+00	1.500000e+00	3.370121e-03	
771	1.690000e+00	1.500000e+00	3.377912e-03	
772	1.700000e+00	1.500000e+00	3.385661e-03	
773	1.710000e+00	1.500000e+00	3.393369e-03	
774	1.720000e+00	1.500000e+00	3.401037e-03	
775	1.730000e+00	1.500000e+00	3.408665e-03	
776	1.740000e+00	1.500000e+00	3.416255e-03	
777	1.750000e+00	1.500000e+00	3.423807e-03	
778	1.760000e+00	1.500000e+00	3.431322e-03	
779	1.770000e+00	1.500000e+00	3.438799e-03	
780	1.780000e+00	1.500000e+00	3.446241e-03	
781	1.790000e+00	1.500000e+00	3.453646e-03	
782	1.800000e+00	1.500000e+00	3.461017e-03	
783	1.810000e+00	1.500000e+00	3.468352e-03	
784	1.820000e+00	1.500000e+00	3.475653e-03	
785	1.830000e+00	1.500000e+00	3.482920e-03	
786	1.840000e+00	1.500000e+00	3.490154e-03	
787	1.850000e+00	1.500000e+00	3.497355e-03	
788	1.860000e+00	1.500000e+00	3.504523e-03	
789	1.870000e+00	1.500000e+00	3.511659e-03	
790	1.880000e+00	1.500000e+00	3.518763e-03	
791	1.890000e+00	1.500000e+00	3.525836e-03	
792	1.900000e+00	1.500000e+00	3.532878e-03	
793	1.910000e+00	1.500000e+00	3.539889e-03	
794	1.920000e+00	1.500000e+00	3.546869e-03	
795	1.930000e+00	1.500000e+00	3.553820e-03	
796	1.940000e+00	1.500000e+00	3.560741e-03	
797	1.950000e+00	1.500000e+00	3.567634e-03	
798	1.960000e+00	1.500000e+00	3.574497e-03	
799	1.970000e+00	1.500000e+00	3.581332e-03	
800	1.980000e+00	1.500000e+00	3.588139e-03	
801	1.990000e+00	1.500000e+00	3.594918e-03	
802	2.000000e+00	1.500000e+00	3.601670e-03	
803	2.010000e+00	1.500000e+00	3.608394e-03	
804	2.020000e+00	1.500000e+00	3.615093e-03	
805	2.030000e+00	1.500000e+00	3.621764e-03	
806	2.040000e+00	1.500000e+00	3.628410e-03	
807	2.050000e+00	1.500000e+00	3.635030e-03	
808	2.060000e+00	1.500000e+00	3.641625e-03	

Index   v-sweep         v(g)            vs#branch       
--------------------------------------------------------------------------------
809	2.070000e+00	1.500000e+00	3.648195e-03	
810	2.080000e+00	1.500000e+00	3.654740e-03	
811	2.090000e+00	1.500000e+00	3.661261e-03	
812	2.100000e+00	1.500000e+00	3.667758e-03	
813	2.110000e+00	1.500000e+00	3.674232e-03	
814	2.120000e+00	1.500000e+00	3.680682e-03	
815	2.130000e+00	1.500000e+00	3.687109e-03	
816	2.140000e+00	1.500000e+00	3.693513e-03	
817	2.150000e+00	1.500000e+00	3.699895e-03	
818	2.160000e+00	1.500000e+00	3.706254e-03	
819	2.170000e+00	1.500000e+00	3.712592e-03	
820	2.180000e+00	1.500000e+00	3.718909e-03	
821	2.190000e+00	1.500000e+00	3.725204e-03	
822	2.200000e+00	1.500000e+00	3.731478e-03	
823	2.210000e+00	1.500000e+00	3.737731e-03	
824	2.220000e+00	1.500000e+00	3.743965e-03	
825	2.230000e+00	1.500000e+00	3.750178e-03	
826	2.240000e+00	1.500000e+00	3.756371e-03	
827	2.250000e+00	1.500000e+00	3.762544e-03	
828	2.260000e+00	1.500000e+00	3.768698e-03	
829	2.270000e+00	1.500000e+00	3.774834e-03	
830	2.280000e+00	1.500000e+00	3.780950e-03	
831	2.290000e+00	1.500000e+00	3.787048e-03	
832	2.300000e+00	1.500000e+00	3.793127e-03	
833	2.310000e+00	1.500000e+00	3.799189e-03	
834	2.320000e+00	1.500000e+00	3.805232e-03	
835	2.330000e+00	1.500000e+00	3.811258e-03	
836	2.340000e+00	1.500000e+00	3.817267e-03	
837	2.350000e+00	1.500000e+00	3.823259e-03	
838	2.360000e+00	1.500000e+00	3.829233e-03	
839	2.370000e+00	1.500000e+00	3.835191e-03	
840	2.380000e+00	1.500000e+00	3.841133e-03	
841	2.390000e+00	1.500000e+00	3.847058e-03	
842	2.400000e+00	1.500000e+00	3.852967e-03	
843	2.410000e+00	1.500000e+00	3.858861e-03	
844	2.420000e+00	1.500000e+00	3.864739e-03	
845	2.430000e+00	1.500000e+00	3.870601e-03	
846	2.440000e+00	1.500000e+00	3.876449e-03	
847	2.450000e+00	1.500000e+00	3.882281e-03	
848	2.460000e+00	1.500000e+00	3.888098e-03	
849	2.470000e+00	1.500000e+00	3.893901e-03	
850	2.480000e+00	1.500000e+00	3.899690e-03	
851	2.490000e+00	1.500000e+00	3.905464e-03	
852	2.500000e+00	1.500000e+00	3.911224e-03	
853	2.510000e+00	1.500000e+00	3.916971e-03	
854	2.520000e+00	1.500000e+00	3.922704e-03	
855	2.530000e+00	1.500000e+00	3.928423e-03	
856	2.540000e+00	1.500000e+00	3.934129e-03	
857	2.550000e+00	1.500000e+00	3.939822e-03	
858	2.560000e+00	1.500000e+00	3.945502e-03	
859	2.570000e+00	1.500000e+00	3.951169e-03	
860	2.580000e+00	1.500000e+00	3.956824e-03	
861	2.590000e+00	1.500000e+00	3.962466e-03	
862	2.600000e+00	1.500000e+00	3.968095e-03	
863	2.610000e+00	1.500000e+00	3.973713e-03	
864	2.620000e+00	1.500000e+00	3.979319e-03	
865	2.630000e+00	1.500000e+00	3.984913e-03	
866	2.640000e+00	1.500000e+00	3.990495e-03	

Index   v-sweep         v(g)            vs#branch       
--------------------------------------------------------------------------------
867	2.650000e+00	1.500000e+00	3.996066e-03	
868	2.660000e+00	1.500000e+00	4.001625e-03	
869	2.670000e+00	1.500000e+00	4.007174e-03	
870	2.680000e+00	1.500000e+00	4.012711e-03	
871	2.690000e+00	1.500000e+00	4.018237e-03	
872	2.700000e+00	1.500000e+00	4.023753e-03	
873	2.710000e+00	1.500000e+00	4.029258e-03	
874	2.720000e+00	1.500000e+00	4.034752e-03	
875	2.730000e+00	1.500000e+00	4.040236e-03	
876	2.740000e+00	1.500000e+00	4.045710e-03	
877	2.750000e+00	1.500000e+00	4.051174e-03	
878	2.760000e+00	1.500000e+00	4.056629e-03	
879	2.770000e+00	1.500000e+00	4.062073e-03	
880	2.780000e+00	1.500000e+00	4.067508e-03	
881	2.790000e+00	1.500000e+00	4.072933e-03	
882	2.800000e+00	1.500000e+00	4.078348e-03	
883	2.810000e+00	1.500000e+00	4.083755e-03	
884	2.820000e+00	1.500000e+00	4.089152e-03	
885	2.830000e+00	1.500000e+00	4.094541e-03	
886	2.840000e+00	1.500000e+00	4.099920e-03	
887	2.850000e+00	1.500000e+00	4.105291e-03	
888	2.860000e+00	1.500000e+00	4.110653e-03	
889	2.870000e+00	1.500000e+00	4.116007e-03	
890	2.880000e+00	1.500000e+00	4.121352e-03	
891	2.890000e+00	1.500000e+00	4.126689e-03	
892	2.900000e+00	1.500000e+00	4.132018e-03	
893	2.910000e+00	1.500000e+00	4.137338e-03	
894	2.920000e+00	1.500000e+00	4.142651e-03	
895	2.930000e+00	1.500000e+00	4.147956e-03	
896	2.940000e+00	1.500000e+00	4.153253e-03	
897	2.950000e+00	1.500000e+00	4.158543e-03	
898	2.960000e+00	1.500000e+00	4.163825e-03	
899	2.970000e+00	1.500000e+00	4.169100e-03	
900	2.980000e+00	1.500000e+00	4.174368e-03	
901	2.990000e+00	1.500000e+00	4.179628e-03	
902	3.000000e+00	1.500000e+00	4.184881e-03	
903	0.000000e+00	2.000000e+00	0.000000e+00	
904	1.000000e-02	2.000000e+00	8.811602e-05	
905	2.000000e-02	2.000000e+00	1.750348e-04	
906	3.000000e-02	2.000000e+00	2.607739e-04	
907	4.000000e-02	2.000000e+00	3.453498e-04	
908	5.000000e-02	2.000000e+00	4.287780e-04	
909	6.000000e-02	2.000000e+00	5.110728e-04	
910	7.000000e-02	2.000000e+00	5.922480e-04	
911	8.000000e-02	2.000000e+00	6.723166e-04	
912	9.000000e-02	2.000000e+00	7.512910e-04	
913	1.000000e-01	2.000000e+00	8.291832e-04	
914	1.100000e-01	2.000000e+00	9.060046e-04	
915	1.200000e-01	2.000000e+00	9.817667e-04	
916	1.300000e-01	2.000000e+00	1.056480e-03	
917	1.400000e-01	2.000000e+00	1.130157e-03	
918	1.500000e-01	2.000000e+00	1.202806e-03	
919	1.600000e-01	2.000000e+00	1.274439e-03	
920	1.700000e-01	2.000000e+00	1.345065e-03	
921	1.800000e-01	2.000000e+00	1.414696e-03	
922	1.900000e-01	2.000000e+00	1.483341e-03	
923	2.000000e-01	2.000000e+00	1.551011e-03	
924	2.100000e-01	2.000000e+00	1.617714e-03	

Index   v-sweep         v(g)            vs#branch       
--------------------------------------------------------------------------------
925	2.200000e-01	2.000000e+00	1.683461e-03	
926	2.300000e-01	2.000000e+00	1.748261e-03	
927	2.400000e-01	2.000000e+00	1.812124e-03	
928	2.500000e-01	2.000000e+00	1.875059e-03	
929	2.600000e-01	2.000000e+00	1.937075e-03	
930	2.700000e-01	2.000000e+00	1.998180e-03	
931	2.800000e-01	2.000000e+00	2.058385e-03	
932	2.900000e-01	2.000000e+00	2.117697e-03	
933	3.000000e-01	2.000000e+00	2.176124e-03	
934	3.100000e-01	2.000000e+00	2.233676e-03	
935	3.200000e-01	2.000000e+00	2.290360e-03	
936	3.300000e-01	2.000000e+00	2.346185e-03	
937	3.400000e-01	2.000000e+00	2.401157e-03	
938	3.500000e-01	2.000000e+00	2.455285e-03	
939	3.600000e-01	2.000000e+00	2.508577e-03	
940	3.700000e-01	2.000000e+00	2.561039e-03	
941	3.800000e-01	2.000000e+00	2.612678e-03	
942	3.900000e-01	2.000000e+00	2.663503e-03	
943	4.000000e-01	2.000000e+00	2.713519e-03	
944	4.100000e-01	2.000000e+00	2.762734e-03	
945	4.200000e-01	2.000000e+00	2.811154e-03	
946	4.300000e-01	2.000000e+00	2.858786e-03	
947	4.400000e-01	2.000000e+00	2.905635e-03	
948	4.500000e-01	2.000000e+00	2.951709e-03	
949	4.600000e-01	2.000000e+00	2.997013e-03	
950	4.700000e-01	2.000000e+00	3.041553e-03	
951	4.800000e-01	2.000000e+00	3.085335e-03	
952	4.900000e-01	2.000000e+00	3.128365e-03	
953	5.000000e-01	2.000000e+00	3.170649e-03	
954	5.100000e-01	2.000000e+00	3.212191e-03	
955	5.200000e-01	2.000000e+00	3.252997e-03	
956	5.300000e-01	2.000000e+00	3.293073e-03	
957	5.400000e-01	2.000000e+00	3.332424e-03	
958	5.500000e-01	2.000000e+00	3.371054e-03	
959	5.600000e-01	2.000000e+00	3.408969e-03	
960	5.700000e-01	2.000000e+00	3.446173e-03	
961	5.800000e-01	2.000000e+00	3.482672e-03	
962	5.900000e-01	2.000000e+00	3.518469e-03	
963	6.000000e-01	2.000000e+00	3.553569e-03	
964	6.100000e-01	2.000000e+00	3.587978e-03	
965	6.200000e-01	2.000000e+00	3.621698e-03	
966	6.300000e-01	2.000000e+00	3.654735e-03	
967	6.400000e-01	2.000000e+00	3.687092e-03	
968	6.500000e-01	2.000000e+00	3.718773e-03	
969	6.600000e-01	2.000000e+00	3.749783e-03	
970	6.700000e-01	2.000000e+00	3.780125e-03	
971	6.800000e-01	2.000000e+00	3.809803e-03	
972	6.900000e-01	2.000000e+00	3.838821e-03	
973	7.000000e-01	2.000000e+00	3.867182e-03	
974	7.100000e-01	2.000000e+00	3.894890e-03	
975	7.200000e-01	2.000000e+00	3.921949e-03	
976	7.300000e-01	2.000000e+00	3.948361e-03	
977	7.400000e-01	2.000000e+00	3.974130e-03	
978	7.500000e-01	2.000000e+00	3.999259e-03	
979	7.600000e-01	2.000000e+00	4.023753e-03	
980	7.700000e-01	2.000000e+00	4.047614e-03	
981	7.800000e-01	2.000000e+00	4.070846e-03	
982	7.900000e-01	2.000000e+00	4.093454e-03	

Index   v-sweep         v(g)            vs#branch       
--------------------------------------------------------------------------------
983	8.000000e-01	2.000000e+00	4.115442e-03	
984	8.100000e-01	2.000000e+00	4.136813e-03	
985	8.200000e-01	2.000000e+00	4.157574e-03	
986	8.300000e-01	2.000000e+00	4.177731e-03	
987	8.400000e-01	2.000000e+00	4.197290e-03	
988	8.500000e-01	2.000000e+00	4.216260e-03	
989	8.600000e-01	2.000000e+00	4.234650e-03	
990	8.700000e-01	2.000000e+00	4.252471e-03	
991	8.800000e-01	2.000000e+00	4.269737e-03	
992	8.900000e-01	2.000000e+00	4.286461e-03	
993	9.000000e-01	2.000000e+00	4.302662e-03	
994	9.100000e-01	2.000000e+00	4.318359e-03	
995	9.200000e-01	2.000000e+00	4.333575e-03	
996	9.300000e-01	2.000000e+00	4.348336e-03	
997	9.400000e-01	2.000000e+00	4.362669e-03	
998	9.500000e-01	2.000000e+00	4.376606e-03	
999	9.600000e-01	2.000000e+00	4.390182e-03	
1000	9.700000e-01	2.000000e+00	4.403433e-03	
1001	9.800000e-01	2.000000e+00	4.416400e-03	
1002	9.900000e-01	2.000000e+00	4.429127e-03	
1003	1.000000e+00	2.000000e+00	4.441657e-03	
1004	1.010000e+00	2.000000e+00	4.454040e-03	
1005	1.020000e+00	2.000000e+00	4.466324e-03	
1006	1.030000e+00	2.000000e+00	4.478563e-03	
1007	1.040000e+00	2.000000e+00	4.490806e-03	
1008	1.050000e+00	2.000000e+00	4.503109e-03	
1009	1.060000e+00	2.000000e+00	4.515522e-03	
1010	1.070000e+00	2.000000e+00	4.528096e-03	
1011	1.080000e+00	2.000000e+00	4.540879e-03	
1012	1.090000e+00	2.000000e+00	4.553913e-03	
1013	1.100000e+00	2.000000e+00	4.567237e-03	
1014	1.110000e+00	2.000000e+00	4.580880e-03	
1015	1.120000e+00	2.000000e+00	4.594864e-03	
1016	1.130000e+00	2.000000e+00	4.609202e-03	
1017	1.140000e+00	2.000000e+00	4.623895e-03	
1018	1.150000e+00	2.000000e+00	4.638935e-03	
1019	1.160000e+00	2.000000e+00	4.654304e-03	
1020	1.170000e+00	2.000000e+00	4.669973e-03	
1021	1.180000e+00	2.000000e+00	4.685906e-03	
1022	1.190000e+00	2.000000e+00	4.702072e-03	
1023	1.200000e+00	2.000000e+00	4.718482e-03	
1024	1.210000e+00	2.000000e+00	4.735067e-03	
1025	1.220000e+00	2.000000e+00	4.751754e-03	
1026	1.230000e+00	2.000000e+00	4.768478e-03	
1027	1.240000e+00	2.000000e+00	4.785182e-03	
1028	1.250000e+00	2.000000e+00	4.801818e-03	
1029	1.260000e+00	2.000000e+00	4.818345e-03	
1030	1.270000e+00	2.000000e+00	4.834730e-03	
1031	1.280000e+00	2.000000e+00	4.850945e-03	
1032	1.290000e+00	2.000000e+00	4.866970e-03	
1033	1.300000e+00	2.000000e+00	4.882791e-03	
1034	1.310000e+00	2.000000e+00	4.898397e-03	
1035	1.320000e+00	2.000000e+00	4.913780e-03	
1036	1.330000e+00	2.000000e+00	4.928938e-03	
1037	1.340000e+00	2.000000e+00	4.943871e-03	
1038	1.350000e+00	2.000000e+00	4.958579e-03	
1039	1.360000e+00	2.000000e+00	4.973065e-03	
1040	1.370000e+00	2.000000e+00	4.987334e-03	

Index   v-sweep         v(g)            vs#branch       
--------------------------------------------------------------------------------
1041	1.380000e+00	2.000000e+00	5.001392e-03	
1042	1.390000e+00	2.000000e+00	5.015243e-03	
1043	1.400000e+00	2.000000e+00	5.028894e-03	
1044	1.410000e+00	2.000000e+00	5.042353e-03	
1045	1.420000e+00	2.000000e+00	5.055624e-03	
1046	1.430000e+00	2.000000e+00	5.068716e-03	
1047	1.440000e+00	2.000000e+00	5.081634e-03	
1048	1.450000e+00	2.000000e+00	5.094386e-03	
1049	1.460000e+00	2.000000e+00	5.106977e-03	
1050	1.470000e+00	2.000000e+00	5.119414e-03	
1051	1.480000e+00	2.000000e+00	5.131702e-03	
1052	1.490000e+00	2.000000e+00	5.143847e-03	
1053	1.500000e+00	2.000000e+00	5.155855e-03	
1054	1.510000e+00	2.000000e+00	5.167730e-03	
1055	1.520000e+00	2.000000e+00	5.179478e-03	
1056	1.530000e+00	2.000000e+00	5.191103e-03	
1057	1.540000e+00	2.000000e+00	5.202610e-03	
1058	1.550000e+00	2.000000e+00	5.214003e-03	
1059	1.560000e+00	2.000000e+00	5.225285e-03	
1060	1.570000e+00	2.000000e+00	5.236462e-03	
1061	1.580000e+00	2.000000e+00	5.247536e-03	
1062	1.590000e+00	2.000000e+00	5.258511e-03	
1063	1.600000e+00	2.000000e+00	5.269391e-03	
1064	1.610000e+00	2.000000e+00	5.280178e-03	
1065	1.620000e+00	2.000000e+00	5.290875e-03	
1066	1.630000e+00	2.000000e+00	5.301486e-03	
1067	1.640000e+00	2.000000e+00	5.312012e-03	
1068	1.650000e+00	2.000000e+00	5.322458e-03	
1069	1.660000e+00	2.000000e+00	5.332824e-03	
1070	1.670000e+00	2.000000e+00	5.343114e-03	
1071	1.680000e+00	2.000000e+00	5.353329e-03	
1072	1.690000e+00	2.000000e+00	5.363472e-03	
1073	1.700000e+00	2.000000e+00	5.373544e-03	
1074	1.710000e+00	2.000000e+00	5.383548e-03	
1075	1.720000e+00	2.000000e+00	5.393486e-03	
1076	1.730000e+00	2.000000e+00	5.403358e-03	
1077	1.740000e+00	2.000000e+00	5.413167e-03	
1078	1.750000e+00	2.000000e+00	5.422914e-03	
1079	1.760000e+00	2.000000e+00	5.432601e-03	
1080	1.770000e+00	2.000000e+00	5.442229e-03	
1081	1.780000e+00	2.000000e+00	5.451798e-03	
1082	1.790000e+00	2.000000e+00	5.461312e-03	
1083	1.800000e+00	2.000000e+00	5.470769e-03	
1084	1.810000e+00	2.000000e+00	5.480173e-03	
1085	1.820000e+00	2.000000e+00	5.489523e-03	
1086	1.830000e+00	2.000000e+00	5.498820e-03	
1087	1.840000e+00	2.000000e+00	5.508066e-03	
1088	1.850000e+00	2.000000e+00	5.517262e-03	
1089	1.860000e+00	2.000000e+00	5.526407e-03	
1090	1.870000e+00	2.000000e+00	5.535504e-03	
1091	1.880000e+00	2.000000e+00	5.544552e-03	
1092	1.890000e+00	2.000000e+00	5.553553e-03	
1093	1.900000e+00	2.000000e+00	5.562507e-03	
1094	1.910000e+00	2.000000e+00	5.571415e-03	
1095	1.920000e+00	2.000000e+00	5.580277e-03	
1096	1.930000e+00	2.000000e+00	5.589095e-03	
1097	1.940000e+00	2.000000e+00	5.597868e-03	
1098	1.950000e+00	2.000000e+00	5.606598e-03	

Index   v-sweep         v(g)            vs#branch       
--------------------------------------------------------------------------------
1099	1.960000e+00	2.000000e+00	5.615285e-03	
1100	1.970000e+00	2.000000e+00	5.623930e-03	
1101	1.980000e+00	2.000000e+00	5.632533e-03	
1102	1.990000e+00	2.000000e+00	5.641094e-03	
1103	2.000000e+00	2.000000e+00	5.649615e-03	
1104	2.010000e+00	2.000000e+00	5.658096e-03	
1105	2.020000e+00	2.000000e+00	5.666538e-03	
1106	2.030000e+00	2.000000e+00	5.674940e-03	
1107	2.040000e+00	2.000000e+00	5.683305e-03	
1108	2.050000e+00	2.000000e+00	5.691631e-03	
1109	2.060000e+00	2.000000e+00	5.699920e-03	
1110	2.070000e+00	2.000000e+00	5.708172e-03	
1111	2.080000e+00	2.000000e+00	5.716389e-03	
1112	2.090000e+00	2.000000e+00	5.724569e-03	
1113	2.100000e+00	2.000000e+00	5.732714e-03	
1114	2.110000e+00	2.000000e+00	5.740825e-03	
1115	2.120000e+00	2.000000e+00	5.748901e-03	
1116	2.130000e+00	2.000000e+00	5.756944e-03	
1117	2.140000e+00	2.000000e+00	5.764954e-03	
1118	2.150000e+00	2.000000e+00	5.772931e-03	
1119	2.160000e+00	2.000000e+00	5.780875e-03	
1120	2.170000e+00	2.000000e+00	5.788788e-03	
1121	2.180000e+00	2.000000e+00	5.796670e-03	
1122	2.190000e+00	2.000000e+00	5.804521e-03	
1123	2.200000e+00	2.000000e+00	5.812342e-03	
1124	2.210000e+00	2.000000e+00	5.820132e-03	
1125	2.220000e+00	2.000000e+00	5.827894e-03	
1126	2.230000e+00	2.000000e+00	5.835626e-03	
1127	2.240000e+00	2.000000e+00	5.843329e-03	
1128	2.250000e+00	2.000000e+00	5.851005e-03	
1129	2.260000e+00	2.000000e+00	5.858652e-03	
1130	2.270000e+00	2.000000e+00	5.866273e-03	
1131	2.280000e+00	2.000000e+00	5.873866e-03	
1132	2.290000e+00	2.000000e+00	5.881433e-03	
1133	2.300000e+00	2.000000e+00	5.888973e-03	
1134	2.310000e+00	2.000000e+00	5.896488e-03	
1135	2.320000e+00	2.000000e+00	5.903978e-03	
1136	2.330000e+00	2.000000e+00	5.911442e-03	
1137	2.340000e+00	2.000000e+00	5.918882e-03	
1138	2.350000e+00	2.000000e+00	5.926297e-03	
1139	2.360000e+00	2.000000e+00	5.933688e-03	
1140	2.370000e+00	2.000000e+00	5.941056e-03	
1141	2.380000e+00	2.000000e+00	5.948400e-03	
1142	2.390000e+00	2.000000e+00	5.955722e-03	
1143	2.400000e+00	2.000000e+00	5.963021e-03	
1144	2.410000e+00	2.000000e+00	5.970297e-03	
1145	2.420000e+00	2.000000e+00	5.977552e-03	
1146	2.430000e+00	2.000000e+00	5.984785e-03	
1147	2.440000e+00	2.000000e+00	5.991997e-03	
1148	2.450000e+00	2.000000e+00	5.999187e-03	
1149	2.460000e+00	2.000000e+00	6.006357e-03	
1150	2.470000e+00	2.000000e+00	6.013507e-03	
1151	2.480000e+00	2.000000e+00	6.020636e-03	
1152	2.490000e+00	2.000000e+00	6.027745e-03	
1153	2.500000e+00	2.000000e+00	6.034835e-03	
1154	2.510000e+00	2.000000e+00	6.041905e-03	
1155	2.520000e+00	2.000000e+00	6.048957e-03	
1156	2.530000e+00	2.000000e+00	6.055990e-03	

Index   v-sweep         v(g)            vs#branch       
--------------------------------------------------------------------------------
1157	2.540000e+00	2.000000e+00	6.063004e-03	
1158	2.550000e+00	2.000000e+00	6.070000e-03	
1159	2.560000e+00	2.000000e+00	6.076978e-03	
1160	2.570000e+00	2.000000e+00	6.083938e-03	
1161	2.580000e+00	2.000000e+00	6.090881e-03	
1162	2.590000e+00	2.000000e+00	6.097806e-03	
1163	2.600000e+00	2.000000e+00	6.104715e-03	
1164	2.610000e+00	2.000000e+00	6.111606e-03	
1165	2.620000e+00	2.000000e+00	6.118482e-03	
1166	2.630000e+00	2.000000e+00	6.125341e-03	
1167	2.640000e+00	2.000000e+00	6.132184e-03	
1168	2.650000e+00	2.000000e+00	6.139011e-03	
1169	2.660000e+00	2.000000e+00	6.145822e-03	
1170	2.670000e+00	2.000000e+00	6.152619e-03	
1171	2.680000e+00	2.000000e+00	6.159400e-03	
1172	2.690000e+00	2.000000e+00	6.166166e-03	
1173	2.700000e+00	2.000000e+00	6.172917e-03	
1174	2.710000e+00	2.000000e+00	6.179654e-03	
1175	2.720000e+00	2.000000e+00	6.186376e-03	
1176	2.730000e+00	2.000000e+00	6.193085e-03	
1177	2.740000e+00	2.000000e+00	6.199779e-03	
1178	2.750000e+00	2.000000e+00	6.206460e-03	
1179	2.760000e+00	2.000000e+00	6.213127e-03	
1180	2.770000e+00	2.000000e+00	6.219781e-03	
1181	2.780000e+00	2.000000e+00	6.226422e-03	
1182	2.790000e+00	2.000000e+00	6.233050e-03	
1183	2.800000e+00	2.000000e+00	6.239665e-03	
1184	2.810000e+00	2.000000e+00	6.246267e-03	
1185	2.820000e+00	2.000000e+00	6.252857e-03	
1186	2.830000e+00	2.000000e+00	6.259435e-03	
1187	2.840000e+00	2.000000e+00	6.266000e-03	
1188	2.850000e+00	2.000000e+00	6.272554e-03	
1189	2.860000e+00	2.000000e+00	6.279096e-03	
1190	2.870000e+00	2.000000e+00	6.285627e-03	
1191	2.880000e+00	2.000000e+00	6.292146e-03	
1192	2.890000e+00	2.000000e+00	6.298654e-03	
1193	2.900000e+00	2.000000e+00	6.305151e-03	
1194	2.910000e+00	2.000000e+00	6.311637e-03	
1195	2.920000e+00	2.000000e+00	6.318112e-03	
1196	2.930000e+00	2.000000e+00	6.324577e-03	
1197	2.940000e+00	2.000000e+00	6.331031e-03	
1198	2.950000e+00	2.000000e+00	6.337475e-03	
1199	2.960000e+00	2.000000e+00	6.343909e-03	
1200	2.970000e+00	2.000000e+00	6.350332e-03	
1201	2.980000e+00	2.000000e+00	6.356746e-03	
1202	2.990000e+00	2.000000e+00	6.363151e-03	
1203	3.000000e+00	2.000000e+00	6.369546e-03	
1204	0.000000e+00	2.500000e+00	0.000000e+00	
1205	1.000000e-02	2.500000e+00	1.026370e-04	
1206	2.000000e-02	2.500000e+00	2.041497e-04	
1207	3.000000e-02	2.500000e+00	3.045539e-04	
1208	4.000000e-02	2.500000e+00	4.038641e-04	
1209	5.000000e-02	2.500000e+00	5.020939e-04	
1210	6.000000e-02	2.500000e+00	5.992561e-04	
1211	7.000000e-02	2.500000e+00	6.953627e-04	
1212	8.000000e-02	2.500000e+00	7.904251e-04	
1213	9.000000e-02	2.500000e+00	8.844539e-04	
1214	1.000000e-01	2.500000e+00	9.774597e-04	

Index   v-sweep         v(g)            vs#branch       
--------------------------------------------------------------------------------
1215	1.100000e-01	2.500000e+00	1.069453e-03	
1216	1.200000e-01	2.500000e+00	1.160442e-03	
1217	1.300000e-01	2.500000e+00	1.250438e-03	
1218	1.400000e-01	2.500000e+00	1.339450e-03	
1219	1.500000e-01	2.500000e+00	1.427486e-03	
1220	1.600000e-01	2.500000e+00	1.514557e-03	
1221	1.700000e-01	2.500000e+00	1.600670e-03	
1222	1.800000e-01	2.500000e+00	1.685836e-03	
1223	1.900000e-01	2.500000e+00	1.770063e-03	
1224	2.000000e-01	2.500000e+00	1.853359e-03	
1225	2.100000e-01	2.500000e+00	1.935733e-03	
1226	2.200000e-01	2.500000e+00	2.017193e-03	
1227	2.300000e-01	2.500000e+00	2.097749e-03	
1228	2.400000e-01	2.500000e+00	2.177407e-03	
1229	2.500000e-01	2.500000e+00	2.256177e-03	
1230	2.600000e-01	2.500000e+00	2.334066e-03	
1231	2.700000e-01	2.500000e+00	2.411083e-03	
1232	2.800000e-01	2.500000e+00	2.487234e-03	
1233	2.900000e-01	2.500000e+00	2.562527e-03	
1234	3.000000e-01	2.500000e+00	2.636971e-03	
1235	3.100000e-01	2.500000e+00	2.710572e-03	
1236	3.200000e-01	2.500000e+00	2.783337e-03	
1237	3.300000e-01	2.500000e+00	2.855273e-03	
1238	3.400000e-01	2.500000e+00	2.926387e-03	
1239	3.500000e-01	2.500000e+00	2.996687e-03	
1240	3.600000e-01	2.500000e+00	3.066178e-03	
1241	3.700000e-01	2.500000e+00	3.134867e-03	
1242	3.800000e-01	2.500000e+00	3.202761e-03	
1243	3.900000e-01	2.500000e+00	3.269865e-03	
1244	4.000000e-01	2.500000e+00	3.336185e-03	
1245	4.100000e-01	2.500000e+00	3.401729e-03	
1246	4.200000e-01	2.500000e+00	3.466500e-03	
1247	4.300000e-01	2.500000e+00	3.530506e-03	
1248	4.400000e-01	2.500000e+00	3.593752e-03	
1249	4.500000e-01	2.500000e+00	3.656242e-03	
1250	4.600000e-01	2.500000e+00	3.717983e-03	
1251	4.700000e-01	2.500000e+00	3.778980e-03	
1252	4.800000e-01	2.500000e+00	3.839238e-03	
1253	4.900000e-01	2.500000e+00	3.898761e-03	
1254	5.000000e-01	2.500000e+00	3.957555e-03	
1255	5.100000e-01	2.500000e+00	4.015625e-03	
1256	5.200000e-01	2.500000e+00	4.072976e-03	
1257	5.300000e-01	2.500000e+00	4.129611e-03	
1258	5.400000e-01	2.500000e+00	4.185536e-03	
1259	5.500000e-01	2.500000e+00	4.240755e-03	
1260	5.600000e-01	2.500000e+00	4.295272e-03	
1261	5.700000e-01	2.500000e+00	4.349092e-03	
1262	5.800000e-01	2.500000e+00	4.402218e-03	
1263	5.900000e-01	2.500000e+00	4.454656e-03	
1264	6.000000e-01	2.500000e+00	4.506408e-03	
1265	6.100000e-01	2.500000e+00	4.557480e-03	
1266	6.200000e-01	2.500000e+00	4.607874e-03	
1267	6.300000e-01	2.500000e+00	4.657595e-03	
1268	6.400000e-01	2.500000e+00	4.706646e-03	
1269	6.500000e-01	2.500000e+00	4.755031e-03	
1270	6.600000e-01	2.500000e+00	4.802753e-03	
1271	6.700000e-01	2.500000e+00	4.849817e-03	
1272	6.800000e-01	2.500000e+00	4.896225e-03	

Index   v-sweep         v(g)            vs#branch       
--------------------------------------------------------------------------------
1273	6.900000e-01	2.500000e+00	4.941980e-03	
1274	7.000000e-01	2.500000e+00	4.987087e-03	
1275	7.100000e-01	2.500000e+00	5.031548e-03	
1276	7.200000e-01	2.500000e+00	5.075366e-03	
1277	7.300000e-01	2.500000e+00	5.118545e-03	
1278	7.400000e-01	2.500000e+00	5.161087e-03	
1279	7.500000e-01	2.500000e+00	5.202995e-03	
1280	7.600000e-01	2.500000e+00	5.244273e-03	
1281	7.700000e-01	2.500000e+00	5.284923e-03	
1282	7.800000e-01	2.500000e+00	5.324947e-03	
1283	7.900000e-01	2.500000e+00	5.364349e-03	
1284	8.000000e-01	2.500000e+00	5.403130e-03	
1285	8.100000e-01	2.500000e+00	5.441294e-03	
1286	8.200000e-01	2.500000e+00	5.478842e-03	
1287	8.300000e-01	2.500000e+00	5.515777e-03	
1288	8.400000e-01	2.500000e+00	5.552102e-03	
1289	8.500000e-01	2.500000e+00	5.587817e-03	
1290	8.600000e-01	2.500000e+00	5.622926e-03	
1291	8.700000e-01	2.500000e+00	5.657431e-03	
1292	8.800000e-01	2.500000e+00	5.691333e-03	
1293	8.900000e-01	2.500000e+00	5.724633e-03	
1294	9.000000e-01	2.500000e+00	5.757335e-03	
1295	9.100000e-01	2.500000e+00	5.789440e-03	
1296	9.200000e-01	2.500000e+00	5.820949e-03	
1297	9.300000e-01	2.500000e+00	5.851865e-03	
1298	9.400000e-01	2.500000e+00	5.882189e-03	
1299	9.500000e-01	2.500000e+00	5.911924e-03	
1300	9.600000e-01	2.500000e+00	5.941071e-03	
1301	9.700000e-01	2.500000e+00	5.969633e-03	
1302	9.800000e-01	2.500000e+00	5.997613e-03	
1303	9.900000e-01	2.500000e+00	6.025014e-03	
1304	1.000000e+00	2.500000e+00	6.051840e-03	
1305	1.010000e+00	2.500000e+00	6.078096e-03	
1306	1.020000e+00	2.500000e+00	6.103787e-03	
1307	1.030000e+00	2.500000e+00	6.128919e-03	
1308	1.040000e+00	2.500000e+00	6.153502e-03	
1309	1.050000e+00	2.500000e+00	6.177545e-03	
1310	1.060000e+00	2.500000e+00	6.201060e-03	
1311	1.070000e+00	2.500000e+00	6.224060e-03	
1312	1.080000e+00	2.500000e+00	6.246564e-03	
1313	1.090000e+00	2.500000e+00	6.268590e-03	
1314	1.100000e+00	2.500000e+00	6.290163e-03	
1315	1.110000e+00	2.500000e+00	6.311308e-03	
1316	1.120000e+00	2.500000e+00	6.332059e-03	
1317	1.130000e+00	2.500000e+00	6.352449e-03	
1318	1.140000e+00	2.500000e+00	6.372518e-03	
1319	1.150000e+00	2.500000e+00	6.392310e-03	
1320	1.160000e+00	2.500000e+00	6.411871e-03	
1321	1.170000e+00	2.500000e+00	6.431253e-03	
1322	1.180000e+00	2.500000e+00	6.450507e-03	
1323	1.190000e+00	2.500000e+00	6.469687e-03	
1324	1.200000e+00	2.500000e+00	6.488845e-03	
1325	1.210000e+00	2.500000e+00	6.508032e-03	
1326	1.220000e+00	2.500000e+00	6.527293e-03	
1327	1.230000e+00	2.500000e+00	6.546669e-03	
1328	1.240000e+00	2.500000e+00	6.566191e-03	
1329	1.250000e+00	2.500000e+00	6.585882e-03	
1330	1.260000e+00	2.500000e+00	6.605754e-03	

Index   v-sweep         v(g)            vs#branch       
--------------------------------------------------------------------------------
1331	1.270000e+00	2.500000e+00	6.625807e-03	
1332	1.280000e+00	2.500000e+00	6.646033e-03	
1333	1.290000e+00	2.500000e+00	6.666461e-03	
1334	1.300000e+00	2.500000e+00	6.687067e-03	
1335	1.310000e+00	2.500000e+00	6.707794e-03	
1336	1.320000e+00	2.500000e+00	6.728582e-03	
1337	1.330000e+00	2.500000e+00	6.749372e-03	
1338	1.340000e+00	2.500000e+00	6.770109e-03	
1339	1.350000e+00	2.500000e+00	6.790743e-03	
1340	1.360000e+00	2.500000e+00	6.811229e-03	
1341	1.370000e+00	2.500000e+00	6.831526e-03	
1342	1.380000e+00	2.500000e+00	6.851602e-03	
1343	1.390000e+00	2.500000e+00	6.871430e-03	
1344	1.400000e+00	2.500000e+00	6.890991e-03	
1345	1.410000e+00	2.500000e+00	6.910267e-03	
1346	1.420000e+00	2.500000e+00	6.929251e-03	
1347	1.430000e+00	2.500000e+00	6.947935e-03	
1348	1.440000e+00	2.500000e+00	6.966317e-03	
1349	1.450000e+00	2.500000e+00	6.984399e-03	
1350	1.460000e+00	2.500000e+00	7.002182e-03	
1351	1.470000e+00	2.500000e+00	7.019672e-03	
1352	1.480000e+00	2.500000e+00	7.036875e-03	
1353	1.490000e+00	2.500000e+00	7.053799e-03	
1354	1.500000e+00	2.500000e+00	7.070451e-03	
1355	1.510000e+00	2.500000e+00	7.086840e-03	
1356	1.520000e+00	2.500000e+00	7.102975e-03	
1357	1.530000e+00	2.500000e+00	7.118866e-03	
1358	1.540000e+00	2.500000e+00	7.134520e-03	
1359	1.550000e+00	2.500000e+00	7.149947e-03	
1360	1.560000e+00	2.500000e+00	7.165155e-03	
1361	1.570000e+00	2.500000e+00	7.180154e-03	
1362	1.580000e+00	2.500000e+00	7.194950e-03	
1363	1.590000e+00	2.500000e+00	7.209552e-03	
1364	1.600000e+00	2.500000e+00	7.223968e-03	
1365	1.610000e+00	2.500000e+00	7.238204e-03	
1366	1.620000e+00	2.500000e+00	7.252268e-03	
1367	1.630000e+00	2.500000e+00	7.266166e-03	
1368	1.640000e+00	2.500000e+00	7.279905e-03	
1369	1.650000e+00	2.500000e+00	7.293490e-03	
1370	1.660000e+00	2.500000e+00	7.306928e-03	
1371	1.670000e+00	2.500000e+00	7.320223e-03	
1372	1.680000e+00	2.500000e+00	7.333381e-03	
1373	1.690000e+00	2.500000e+00	7.346407e-03	
1374	1.700000e+00	2.500000e+00	7.359305e-03	
1375	1.710000e+00	2.500000e+00	7.372080e-03	
1376	1.720000e+00	2.500000e+00	7.384736e-03	
1377	1.730000e+00	2.500000e+00	7.397278e-03	
1378	1.740000e+00	2.500000e+00	7.409708e-03	
1379	1.750000e+00	2.500000e+00	7.422031e-03	
1380	1.760000e+00	2.500000e+00	7.434251e-03	
1381	1.770000e+00	2.500000e+00	7.446369e-03	
1382	1.780000e+00	2.500000e+00	7.458390e-03	
1383	1.790000e+00	2.500000e+00	7.470317e-03	
1384	1.800000e+00	2.500000e+00	7.482151e-03	
1385	1.810000e+00	2.500000e+00	7.493896e-03	
1386	1.820000e+00	2.500000e+00	7.505555e-03	
1387	1.830000e+00	2.500000e+00	7.517129e-03	
1388	1.840000e+00	2.500000e+00	7.528621e-03	

Index   v-sweep         v(g)            vs#branch       
--------------------------------------------------------------------------------
1389	1.850000e+00	2.500000e+00	7.540034e-03	
1390	1.860000e+00	2.500000e+00	7.551368e-03	
1391	1.870000e+00	2.500000e+00	7.562626e-03	
1392	1.880000e+00	2.500000e+00	7.573809e-03	
1393	1.890000e+00	2.500000e+00	7.584920e-03	
1394	1.900000e+00	2.500000e+00	7.595960e-03	
1395	1.910000e+00	2.500000e+00	7.606930e-03	
1396	1.920000e+00	2.500000e+00	7.617832e-03	
1397	1.930000e+00	2.500000e+00	7.628666e-03	
1398	1.940000e+00	2.500000e+00	7.639436e-03	
1399	1.950000e+00	2.500000e+00	7.650141e-03	
1400	1.960000e+00	2.500000e+00	7.660783e-03	
1401	1.970000e+00	2.500000e+00	7.671362e-03	
1402	1.980000e+00	2.500000e+00	7.681881e-03	
1403	1.990000e+00	2.500000e+00	7.692340e-03	
1404	2.000000e+00	2.500000e+00	7.702739e-03	
1405	2.010000e+00	2.500000e+00	7.713081e-03	
1406	2.020000e+00	2.500000e+00	7.723366e-03	
1407	2.030000e+00	2.500000e+00	7.733595e-03	
1408	2.040000e+00	2.500000e+00	7.743768e-03	
1409	2.050000e+00	2.500000e+00	7.753887e-03	
1410	2.060000e+00	2.500000e+00	7.763953e-03	
1411	2.070000e+00	2.500000e+00	7.773966e-03	
1412	2.080000e+00	2.500000e+00	7.783928e-03	
1413	2.090000e+00	2.500000e+00	7.793838e-03	
1414	2.100000e+00	2.500000e+00	7.803698e-03	
1415	2.110000e+00	2.500000e+00	7.813510e-03	
1416	2.120000e+00	2.500000e+00	7.823272e-03	
1417	2.130000e+00	2.500000e+00	7.832987e-03	
1418	2.140000e+00	2.500000e+00	7.842655e-03	
1419	2.150000e+00	2.500000e+00	7.852277e-03	
1420	2.160000e+00	2.500000e+00	7.861853e-03	
1421	2.170000e+00	2.500000e+00	7.871385e-03	
1422	2.180000e+00	2.500000e+00	7.880873e-03	
1423	2.190000e+00	2.500000e+00	7.890317e-03	
1424	2.200000e+00	2.500000e+00	7.899719e-03	
1425	2.210000e+00	2.500000e+00	7.909079e-03	
1426	2.220000e+00	2.500000e+00	7.918398e-03	
1427	2.230000e+00	2.500000e+00	7.927676e-03	
1428	2.240000e+00	2.500000e+00	7.936915e-03	
1429	2.250000e+00	2.500000e+00	7.946114e-03	
1430	2.260000e+00	2.500000e+00	7.955275e-03	
1431	2.270000e+00	2.500000e+00	7.964397e-03	
1432	2.280000e+00	2.500000e+00	7.973483e-03	
1433	2.290000e+00	2.500000e+00	7.982531e-03	
1434	2.300000e+00	2.500000e+00	7.991544e-03	
1435	2.310000e+00	2.500000e+00	8.000521e-03	
1436	2.320000e+00	2.500000e+00	8.009463e-03	
1437	2.330000e+00	2.500000e+00	8.018370e-03	
1438	2.340000e+00	2.500000e+00	8.027244e-03	
1439	2.350000e+00	2.500000e+00	8.036085e-03	
1440	2.360000e+00	2.500000e+00	8.044892e-03	
1441	2.370000e+00	2.500000e+00	8.053668e-03	
1442	2.380000e+00	2.500000e+00	8.062411e-03	
1443	2.390000e+00	2.500000e+00	8.071123e-03	
1444	2.400000e+00	2.500000e+00	8.079805e-03	
1445	2.410000e+00	2.500000e+00	8.088456e-03	
1446	2.420000e+00	2.500000e+00	8.097078e-03	

Index   v-sweep         v(g)            vs#branch       
--------------------------------------------------------------------------------
1447	2.430000e+00	2.500000e+00	8.105670e-03	
1448	2.440000e+00	2.500000e+00	8.114233e-03	
1449	2.450000e+00	2.500000e+00	8.122768e-03	
1450	2.460000e+00	2.500000e+00	8.131275e-03	
1451	2.470000e+00	2.500000e+00	8.139755e-03	
1452	2.480000e+00	2.500000e+00	8.148207e-03	
1453	2.490000e+00	2.500000e+00	8.156632e-03	
1454	2.500000e+00	2.500000e+00	8.165032e-03	
1455	2.510000e+00	2.500000e+00	8.173405e-03	
1456	2.520000e+00	2.500000e+00	8.181753e-03	
1457	2.530000e+00	2.500000e+00	8.190076e-03	
1458	2.540000e+00	2.500000e+00	8.198374e-03	
1459	2.550000e+00	2.500000e+00	8.206648e-03	
1460	2.560000e+00	2.500000e+00	8.214898e-03	
1461	2.570000e+00	2.500000e+00	8.223124e-03	
1462	2.580000e+00	2.500000e+00	8.231327e-03	
1463	2.590000e+00	2.500000e+00	8.239507e-03	
1464	2.600000e+00	2.500000e+00	8.247665e-03	
1465	2.610000e+00	2.500000e+00	8.255800e-03	
1466	2.620000e+00	2.500000e+00	8.263914e-03	
1467	2.630000e+00	2.500000e+00	8.272006e-03	
1468	2.640000e+00	2.500000e+00	8.280076e-03	
1469	2.650000e+00	2.500000e+00	8.288126e-03	
1470	2.660000e+00	2.500000e+00	8.296156e-03	
1471	2.670000e+00	2.500000e+00	8.304165e-03	
1472	2.680000e+00	2.500000e+00	8.312154e-03	
1473	2.690000e+00	2.500000e+00	8.320123e-03	
1474	2.700000e+00	2.500000e+00	8.328073e-03	
1475	2.710000e+00	2.500000e+00	8.336004e-03	
1476	2.720000e+00	2.500000e+00	8.343917e-03	
1477	2.730000e+00	2.500000e+00	8.351810e-03	
1478	2.740000e+00	2.500000e+00	8.359686e-03	
1479	2.750000e+00	2.500000e+00	8.367543e-03	
1480	2.760000e+00	2.500000e+00	8.375383e-03	
1481	2.770000e+00	2.500000e+00	8.383205e-03	
1482	2.780000e+00	2.500000e+00	8.391011e-03	
1483	2.790000e+00	2.500000e+00	8.398799e-03	
1484	2.800000e+00	2.500000e+00	8.406570e-03	
1485	2.810000e+00	2.500000e+00	8.414326e-03	
1486	2.820000e+00	2.500000e+00	8.422064e-03	
1487	2.830000e+00	2.500000e+00	8.429788e-03	
1488	2.840000e+00	2.500000e+00	8.437495e-03	
1489	2.850000e+00	2.500000e+00	8.445187e-03	
1490	2.860000e+00	2.500000e+00	8.452863e-03	
1491	2.870000e+00	2.500000e+00	8.460525e-03	
1492	2.880000e+00	2.500000e+00	8.468172e-03	
1493	2.890000e+00	2.500000e+00	8.475804e-03	
1494	2.900000e+00	2.500000e+00	8.483422e-03	
1495	2.910000e+00	2.500000e+00	8.491026e-03	
1496	2.920000e+00	2.500000e+00	8.498615e-03	
1497	2.930000e+00	2.500000e+00	8.506192e-03	
1498	2.940000e+00	2.500000e+00	8.513754e-03	
1499	2.950000e+00	2.500000e+00	8.521303e-03	
1500	2.960000e+00	2.500000e+00	8.528839e-03	
1501	2.970000e+00	2.500000e+00	8.536363e-03	
1502	2.980000e+00	2.500000e+00	8.543873e-03	
1503	2.990000e+00	2.500000e+00	8.551371e-03	
1504	3.000000e+00	2.500000e+00	8.558856e-03	

Index   v-sweep         v(g)            vs#branch       
--------------------------------------------------------------------------------
1505	0.000000e+00	3.000000e+00	0.000000e+00	
1506	1.000000e-02	3.000000e+00	1.118014e-04	
1507	2.000000e-02	3.000000e+00	2.225797e-04	
1508	3.000000e-02	3.000000e+00	3.323487e-04	
1509	4.000000e-02	3.000000e+00	4.411212e-04	
1510	5.000000e-02	3.000000e+00	5.489088e-04	
1511	6.000000e-02	3.000000e+00	6.557227e-04	
1512	7.000000e-02	3.000000e+00	7.615730e-04	
1513	8.000000e-02	3.000000e+00	8.664696e-04	
1514	9.000000e-02	3.000000e+00	9.704215e-04	
1515	1.000000e-01	3.000000e+00	1.073438e-03	
1516	1.100000e-01	3.000000e+00	1.175526e-03	
1517	1.200000e-01	3.000000e+00	1.276696e-03	
1518	1.300000e-01	3.000000e+00	1.376955e-03	
1519	1.400000e-01	3.000000e+00	1.476311e-03	
1520	1.500000e-01	3.000000e+00	1.574772e-03	
1521	1.600000e-01	3.000000e+00	1.672345e-03	
1522	1.700000e-01	3.000000e+00	1.769039e-03	
1523	1.800000e-01	3.000000e+00	1.864860e-03	
1524	1.900000e-01	3.000000e+00	1.959816e-03	
1525	2.000000e-01	3.000000e+00	2.053916e-03	
1526	2.100000e-01	3.000000e+00	2.147165e-03	
1527	2.200000e-01	3.000000e+00	2.239571e-03	
1528	2.300000e-01	3.000000e+00	2.331142e-03	
1529	2.400000e-01	3.000000e+00	2.421884e-03	
1530	2.500000e-01	3.000000e+00	2.511804e-03	
1531	2.600000e-01	3.000000e+00	2.600910e-03	
1532	2.700000e-01	3.000000e+00	2.689207e-03	
1533	2.800000e-01	3.000000e+00	2.776703e-03	
1534	2.900000e-01	3.000000e+00	2.863404e-03	
1535	3.000000e-01	3.000000e+00	2.949316e-03	
1536	3.100000e-01	3.000000e+00	3.034446e-03	
1537	3.200000e-01	3.000000e+00	3.118799e-03	
1538	3.300000e-01	3.000000e+00	3.202382e-03	
1539	3.400000e-01	3.000000e+00	3.285200e-03	
1540	3.500000e-01	3.000000e+00	3.367260e-03	
1541	3.600000e-01	3.000000e+00	3.448567e-03	
1542	3.700000e-01	3.000000e+00	3.529126e-03	
1543	3.800000e-01	3.000000e+00	3.608943e-03	
1544	3.900000e-01	3.000000e+00	3.688023e-03	
1545	4.000000e-01	3.000000e+00	3.766371e-03	
1546	4.100000e-01	3.000000e+00	3.843993e-03	
1547	4.200000e-01	3.000000e+00	3.920893e-03	
1548	4.300000e-01	3.000000e+00	3.997076e-03	
1549	4.400000e-01	3.000000e+00	4.072547e-03	
1550	4.500000e-01	3.000000e+00	4.147311e-03	
1551	4.600000e-01	3.000000e+00	4.221372e-03	
1552	4.700000e-01	3.000000e+00	4.294734e-03	
1553	4.800000e-01	3.000000e+00	4.367402e-03	
1554	4.900000e-01	3.000000e+00	4.439380e-03	
1555	5.000000e-01	3.000000e+00	4.510673e-03	
1556	5.100000e-01	3.000000e+00	4.581284e-03	
1557	5.200000e-01	3.000000e+00	4.651217e-03	
1558	5.300000e-01	3.000000e+00	4.720477e-03	
1559	5.400000e-01	3.000000e+00	4.789066e-03	
1560	5.500000e-01	3.000000e+00	4.856990e-03	
1561	5.600000e-01	3.000000e+00	4.924252e-03	
1562	5.700000e-01	3.000000e+00	4.990854e-03	

Index   v-sweep         v(g)            vs#branch       
--------------------------------------------------------------------------------
1563	5.800000e-01	3.000000e+00	5.056802e-03	
1564	5.900000e-01	3.000000e+00	5.122097e-03	
1565	6.000000e-01	3.000000e+00	5.186745e-03	
1566	6.100000e-01	3.000000e+00	5.250747e-03	
1567	6.200000e-01	3.000000e+00	5.314108e-03	
1568	6.300000e-01	3.000000e+00	5.376830e-03	
1569	6.400000e-01	3.000000e+00	5.438918e-03	
1570	6.500000e-01	3.000000e+00	5.500372e-03	
1571	6.600000e-01	3.000000e+00	5.561198e-03	
1572	6.700000e-01	3.000000e+00	5.621398e-03	
1573	6.800000e-01	3.000000e+00	5.680974e-03	
1574	6.900000e-01	3.000000e+00	5.739930e-03	
1575	7.000000e-01	3.000000e+00	5.798268e-03	
1576	7.100000e-01	3.000000e+00	5.855992e-03	
1577	7.200000e-01	3.000000e+00	5.913104e-03	
1578	7.300000e-01	3.000000e+00	5.969606e-03	
1579	7.400000e-01	3.000000e+00	6.025502e-03	
1580	7.500000e-01	3.000000e+00	6.080794e-03	
1581	7.600000e-01	3.000000e+00	6.135483e-03	
1582	7.700000e-01	3.000000e+00	6.189574e-03	
1583	7.800000e-01	3.000000e+00	6.243069e-03	
1584	7.900000e-01	3.000000e+00	6.295968e-03	
1585	8.000000e-01	3.000000e+00	6.348276e-03	
1586	8.100000e-01	3.000000e+00	6.399995e-03	
1587	8.200000e-01	3.000000e+00	6.451126e-03	
1588	8.300000e-01	3.000000e+00	6.501672e-03	
1589	8.400000e-01	3.000000e+00	6.551635e-03	
1590	8.500000e-01	3.000000e+00	6.601018e-03	
1591	8.600000e-01	3.000000e+00	6.649821e-03	
1592	8.700000e-01	3.000000e+00	6.698048e-03	
1593	8.800000e-01	3.000000e+00	6.745701e-03	
1594	8.900000e-01	3.000000e+00	6.792781e-03	
1595	9.000000e-01	3.000000e+00	6.839290e-03	
1596	9.100000e-01	3.000000e+00	6.885231e-03	
1597	9.200000e-01	3.000000e+00	6.930604e-03	
1598	9.300000e-01	3.000000e+00	6.975413e-03	
1599	9.400000e-01	3.000000e+00	7.019658e-03	
1600	9.500000e-01	3.000000e+00	7.063342e-03	
1601	9.600000e-01	3.000000e+00	7.106466e-03	
1602	9.700000e-01	3.000000e+00	7.149032e-03	
1603	9.800000e-01	3.000000e+00	7.191041e-03	
1604	9.900000e-01	3.000000e+00	7.232495e-03	
1605	1.000000e+00	3.000000e+00	7.273397e-03	
1606	1.010000e+00	3.000000e+00	7.313747e-03	
1607	1.020000e+00	3.000000e+00	7.353547e-03	
1608	1.030000e+00	3.000000e+00	7.392799e-03	
1609	1.040000e+00	3.000000e+00	7.431505e-03	
1610	1.050000e+00	3.000000e+00	7.469666e-03	
1611	1.060000e+00	3.000000e+00	7.507286e-03	
1612	1.070000e+00	3.000000e+00	7.544365e-03	
1613	1.080000e+00	3.000000e+00	7.580908e-03	
1614	1.090000e+00	3.000000e+00	7.616916e-03	
1615	1.100000e+00	3.000000e+00	7.652393e-03	
1616	1.110000e+00	3.000000e+00	7.687344e-03	
1617	1.120000e+00	3.000000e+00	7.721772e-03	
1618	1.130000e+00	3.000000e+00	7.755683e-03	
1619	1.140000e+00	3.000000e+00	7.789083e-03	
1620	1.150000e+00	3.000000e+00	7.821981e-03	

Index   v-sweep         v(g)            vs#branch       
--------------------------------------------------------------------------------
1621	1.160000e+00	3.000000e+00	7.854384e-03	
1622	1.170000e+00	3.000000e+00	7.886304e-03	
1623	1.180000e+00	3.000000e+00	7.917753e-03	
1624	1.190000e+00	3.000000e+00	7.948745e-03	
1625	1.200000e+00	3.000000e+00	7.979297e-03	
1626	1.210000e+00	3.000000e+00	8.009428e-03	
1627	1.220000e+00	3.000000e+00	8.039160e-03	
1628	1.230000e+00	3.000000e+00	8.068519e-03	
1629	1.240000e+00	3.000000e+00	8.097533e-03	
1630	1.250000e+00	3.000000e+00	8.126234e-03	
1631	1.260000e+00	3.000000e+00	8.154655e-03	
1632	1.270000e+00	3.000000e+00	8.182834e-03	
1633	1.280000e+00	3.000000e+00	8.210811e-03	
1634	1.290000e+00	3.000000e+00	8.238627e-03	
1635	1.300000e+00	3.000000e+00	8.266323e-03	
1636	1.310000e+00	3.000000e+00	8.293940e-03	
1637	1.320000e+00	3.000000e+00	8.321518e-03	
1638	1.330000e+00	3.000000e+00	8.349090e-03	
1639	1.340000e+00	3.000000e+00	8.376687e-03	
1640	1.350000e+00	3.000000e+00	8.404329e-03	
1641	1.360000e+00	3.000000e+00	8.432030e-03	
1642	1.370000e+00	3.000000e+00	8.459809e-03	
1643	1.380000e+00	3.000000e+00	8.487694e-03	
1644	1.390000e+00	3.000000e+00	8.515658e-03	
1645	1.400000e+00	3.000000e+00	8.543657e-03	
1646	1.410000e+00	3.000000e+00	8.571644e-03	
1647	1.420000e+00	3.000000e+00	8.599564e-03	
1648	1.430000e+00	3.000000e+00	8.627359e-03	
1649	1.440000e+00	3.000000e+00	8.654973e-03	
1650	1.450000e+00	3.000000e+00	8.682349e-03	
1651	1.460000e+00	3.000000e+00	8.709436e-03	
1652	1.470000e+00	3.000000e+00	8.736188e-03	
1653	1.480000e+00	3.000000e+00	8.762564e-03	
1654	1.490000e+00	3.000000e+00	8.788531e-03	
1655	1.500000e+00	3.000000e+00	8.814065e-03	
1656	1.510000e+00	3.000000e+00	8.839145e-03	
1657	1.520000e+00	3.000000e+00	8.863759e-03	
1658	1.530000e+00	3.000000e+00	8.887900e-03	
1659	1.540000e+00	3.000000e+00	8.911566e-03	
1660	1.550000e+00	3.000000e+00	8.934759e-03	
1661	1.560000e+00	3.000000e+00	8.957485e-03	
1662	1.570000e+00	3.000000e+00	8.979752e-03	
1663	1.580000e+00	3.000000e+00	9.001571e-03	
1664	1.590000e+00	3.000000e+00	9.022954e-03	
1665	1.600000e+00	3.000000e+00	9.043915e-03	
1666	1.610000e+00	3.000000e+00	9.064467e-03	
1667	1.620000e+00	3.000000e+00	9.084625e-03	
1668	1.630000e+00	3.000000e+00	9.104404e-03	
1669	1.640000e+00	3.000000e+00	9.123820e-03	
1670	1.650000e+00	3.000000e+00	9.142886e-03	
1671	1.660000e+00	3.000000e+00	9.161617e-03	
1672	1.670000e+00	3.000000e+00	9.180027e-03	
1673	1.680000e+00	3.000000e+00	9.198130e-03	
1674	1.690000e+00	3.000000e+00	9.215938e-03	
1675	1.700000e+00	3.000000e+00	9.233464e-03	
1676	1.710000e+00	3.000000e+00	9.250721e-03	
1677	1.720000e+00	3.000000e+00	9.267719e-03	
1678	1.730000e+00	3.000000e+00	9.284470e-03	

Index   v-sweep         v(g)            vs#branch       
--------------------------------------------------------------------------------
1679	1.740000e+00	3.000000e+00	9.300984e-03	
1680	1.750000e+00	3.000000e+00	9.317271e-03	
1681	1.760000e+00	3.000000e+00	9.333340e-03	
1682	1.770000e+00	3.000000e+00	9.349201e-03	
1683	1.780000e+00	3.000000e+00	9.364862e-03	
1684	1.790000e+00	3.000000e+00	9.380330e-03	
1685	1.800000e+00	3.000000e+00	9.395615e-03	
1686	1.810000e+00	3.000000e+00	9.410722e-03	
1687	1.820000e+00	3.000000e+00	9.425659e-03	
1688	1.830000e+00	3.000000e+00	9.440432e-03	
1689	1.840000e+00	3.000000e+00	9.455048e-03	
1690	1.850000e+00	3.000000e+00	9.469511e-03	
1691	1.860000e+00	3.000000e+00	9.483829e-03	
1692	1.870000e+00	3.000000e+00	9.498006e-03	
1693	1.880000e+00	3.000000e+00	9.512046e-03	
1694	1.890000e+00	3.000000e+00	9.525956e-03	
1695	1.900000e+00	3.000000e+00	9.539738e-03	
1696	1.910000e+00	3.000000e+00	9.553397e-03	
1697	1.920000e+00	3.000000e+00	9.566938e-03	
1698	1.930000e+00	3.000000e+00	9.580363e-03	
1699	1.940000e+00	3.000000e+00	9.593677e-03	
1700	1.950000e+00	3.000000e+00	9.606882e-03	
1701	1.960000e+00	3.000000e+00	9.619982e-03	
1702	1.970000e+00	3.000000e+00	9.632979e-03	
1703	1.980000e+00	3.000000e+00	9.645877e-03	
1704	1.990000e+00	3.000000e+00	9.658678e-03	
1705	2.000000e+00	3.000000e+00	9.671385e-03	
1706	2.010000e+00	3.000000e+00	9.683999e-03	
1707	2.020000e+00	3.000000e+00	9.696523e-03	
1708	2.030000e+00	3.000000e+00	9.708960e-03	
1709	2.040000e+00	3.000000e+00	9.721310e-03	
1710	2.050000e+00	3.000000e+00	9.733577e-03	
1711	2.060000e+00	3.000000e+00	9.745761e-03	
1712	2.070000e+00	3.000000e+00	9.757866e-03	
1713	2.080000e+00	3.000000e+00	9.769891e-03	
1714	2.090000e+00	3.000000e+00	9.781840e-03	
1715	2.100000e+00	3.000000e+00	9.793713e-03	
1716	2.110000e+00	3.000000e+00	9.805512e-03	
1717	2.120000e+00	3.000000e+00	9.817239e-03	
1718	2.130000e+00	3.000000e+00	9.828895e-03	
1719	2.140000e+00	3.000000e+00	9.840481e-03	
1720	2.150000e+00	3.000000e+00	9.851999e-03	
1721	2.160000e+00	3.000000e+00	9.863450e-03	
1722	2.170000e+00	3.000000e+00	9.874835e-03	
1723	2.180000e+00	3.000000e+00	9.886156e-03	
1724	2.190000e+00	3.000000e+00	9.897414e-03	
1725	2.200000e+00	3.000000e+00	9.908610e-03	
1726	2.210000e+00	3.000000e+00	9.919745e-03	
1727	2.220000e+00	3.000000e+00	9.930820e-03	
1728	2.230000e+00	3.000000e+00	9.941837e-03	
1729	2.240000e+00	3.000000e+00	9.952797e-03	
1730	2.250000e+00	3.000000e+00	9.963700e-03	
1731	2.260000e+00	3.000000e+00	9.974548e-03	
1732	2.270000e+00	3.000000e+00	9.985342e-03	
1733	2.280000e+00	3.000000e+00	9.996083e-03	
1734	2.290000e+00	3.000000e+00	1.000677e-02	
1735	2.300000e+00	3.000000e+00	1.001741e-02	
1736	2.310000e+00	3.000000e+00	1.002800e-02	

Index   v-sweep         v(g)            vs#branch       
--------------------------------------------------------------------------------
1737	2.320000e+00	3.000000e+00	1.003853e-02	
1738	2.330000e+00	3.000000e+00	1.004902e-02	
1739	2.340000e+00	3.000000e+00	1.005947e-02	
1740	2.350000e+00	3.000000e+00	1.006986e-02	
1741	2.360000e+00	3.000000e+00	1.008021e-02	
1742	2.370000e+00	3.000000e+00	1.009051e-02	
1743	2.380000e+00	3.000000e+00	1.010077e-02	
1744	2.390000e+00	3.000000e+00	1.011099e-02	
1745	2.400000e+00	3.000000e+00	1.012117e-02	
1746	2.410000e+00	3.000000e+00	1.013130e-02	
1747	2.420000e+00	3.000000e+00	1.014139e-02	
1748	2.430000e+00	3.000000e+00	1.015144e-02	
1749	2.440000e+00	3.000000e+00	1.016145e-02	
1750	2.450000e+00	3.000000e+00	1.017143e-02	
1751	2.460000e+00	3.000000e+00	1.018136e-02	
1752	2.470000e+00	3.000000e+00	1.019126e-02	
1753	2.480000e+00	3.000000e+00	1.020112e-02	
1754	2.490000e+00	3.000000e+00	1.021094e-02	
1755	2.500000e+00	3.000000e+00	1.022073e-02	
1756	2.510000e+00	3.000000e+00	1.023048e-02	
1757	2.520000e+00	3.000000e+00	1.024020e-02	
1758	2.530000e+00	3.000000e+00	1.024989e-02	
1759	2.540000e+00	3.000000e+00	1.025954e-02	
1760	2.550000e+00	3.000000e+00	1.026916e-02	
1761	2.560000e+00	3.000000e+00	1.027874e-02	
1762	2.570000e+00	3.000000e+00	1.028830e-02	
1763	2.580000e+00	3.000000e+00	1.029782e-02	
1764	2.590000e+00	3.000000e+00	1.030731e-02	
1765	2.600000e+00	3.000000e+00	1.031678e-02	
1766	2.610000e+00	3.000000e+00	1.032621e-02	
1767	2.620000e+00	3.000000e+00	1.033562e-02	
1768	2.630000e+00	3.000000e+00	1.034499e-02	
1769	2.640000e+00	3.000000e+00	1.035434e-02	
1770	2.650000e+00	3.000000e+00	1.036366e-02	
1771	2.660000e+00	3.000000e+00	1.037295e-02	
1772	2.670000e+00	3.000000e+00	1.038222e-02	
1773	2.680000e+00	3.000000e+00	1.039146e-02	
1774	2.690000e+00	3.000000e+00	1.040068e-02	
1775	2.700000e+00	3.000000e+00	1.040986e-02	
1776	2.710000e+00	3.000000e+00	1.041903e-02	
1777	2.720000e+00	3.000000e+00	1.042817e-02	
1778	2.730000e+00	3.000000e+00	1.043728e-02	
1779	2.740000e+00	3.000000e+00	1.044637e-02	
1780	2.750000e+00	3.000000e+00	1.045544e-02	
1781	2.760000e+00	3.000000e+00	1.046448e-02	
1782	2.770000e+00	3.000000e+00	1.047351e-02	
1783	2.780000e+00	3.000000e+00	1.048251e-02	
1784	2.790000e+00	3.000000e+00	1.049148e-02	
1785	2.800000e+00	3.000000e+00	1.050044e-02	
1786	2.810000e+00	3.000000e+00	1.050937e-02	
1787	2.820000e+00	3.000000e+00	1.051828e-02	
1788	2.830000e+00	3.000000e+00	1.052718e-02	
1789	2.840000e+00	3.000000e+00	1.053605e-02	
1790	2.850000e+00	3.000000e+00	1.054490e-02	
1791	2.860000e+00	3.000000e+00	1.055373e-02	
1792	2.870000e+00	3.000000e+00	1.056255e-02	
1793	2.880000e+00	3.000000e+00	1.057134e-02	
1794	2.890000e+00	3.000000e+00	1.058011e-02	

Index   v-sweep         v(g)            vs#branch       
--------------------------------------------------------------------------------
1795	2.900000e+00	3.000000e+00	1.058887e-02	
1796	2.910000e+00	3.000000e+00	1.059761e-02	
1797	2.920000e+00	3.000000e+00	1.060633e-02	
1798	2.930000e+00	3.000000e+00	1.061503e-02	
1799	2.940000e+00	3.000000e+00	1.062372e-02	
1800	2.950000e+00	3.000000e+00	1.063238e-02	
1801	2.960000e+00	3.000000e+00	1.064104e-02	
1802	2.970000e+00	3.000000e+00	1.064967e-02	
1803	2.980000e+00	3.000000e+00	1.065829e-02	
1804	2.990000e+00	3.000000e+00	1.066689e-02	
1805	3.000000e+00	3.000000e+00	1.067547e-02	




