 Reference value :  2.77000e+00
No. of Data Rows : 1806

Circuit: *model = BSIMSOI (PD)

Doing analysis at TEMP = 300.150000 and TNOM = 300.150000
Warning: Pd = 0 is less than W.
Warning: Ps = 0 is less than W.
                             *model = BSIMSOI (PD)
--------------------------------------------------------------------------------
Index   v-sweep         v(g)            vs#branch       
--------------------------------------------------------------------------------
0	0.000000e+00	5.000000e-01	1.478176e-42	
1	1.000000e-02	5.000000e-01	2.933649e-06	
2	2.000000e-02	5.000000e-01	5.424818e-06	
3	3.000000e-02	5.000000e-01	7.494120e-06	
4	4.000000e-02	5.000000e-01	9.168763e-06	
5	5.000000e-02	5.000000e-01	1.048555e-05	
6	6.000000e-02	5.000000e-01	1.149269e-05	
7	7.000000e-02	5.000000e-01	1.224807e-05	
8	8.000000e-02	5.000000e-01	1.281282e-05	
9	9.000000e-02	5.000000e-01	1.324287e-05	
10	1.000000e-01	5.000000e-01	1.358286e-05	
11	1.100000e-01	5.000000e-01	1.386488e-05	
12	1.200000e-01	5.000000e-01	1.411044e-05	
13	1.300000e-01	5.000000e-01	1.434292e-05	
14	1.400000e-01	5.000000e-01	1.454858e-05	
15	1.500000e-01	5.000000e-01	1.474768e-05	
16	1.600000e-01	5.000000e-01	1.494352e-05	
17	1.700000e-01	5.000000e-01	1.513834e-05	
18	1.800000e-01	5.000000e-01	1.533368e-05	
19	1.900000e-01	5.000000e-01	1.553066e-05	
20	2.000000e-01	5.000000e-01	1.573012e-05	
21	2.100000e-01	5.000000e-01	1.593269e-05	
22	2.200000e-01	5.000000e-01	1.613886e-05	
23	2.300000e-01	5.000000e-01	1.634904e-05	
24	2.400000e-01	5.000000e-01	1.656355e-05	
25	2.500000e-01	5.000000e-01	1.678267e-05	
26	2.600000e-01	5.000000e-01	1.700664e-05	
27	2.700000e-01	5.000000e-01	1.723565e-05	
28	2.800000e-01	5.000000e-01	1.746991e-05	
29	2.900000e-01	5.000000e-01	1.770956e-05	
30	3.000000e-01	5.000000e-01	1.795475e-05	
31	3.100000e-01	5.000000e-01	1.820563e-05	
32	3.200000e-01	5.000000e-01	1.846232e-05	
33	3.300000e-01	5.000000e-01	1.872494e-05	
34	3.400000e-01	5.000000e-01	1.899359e-05	
35	3.500000e-01	5.000000e-01	1.926838e-05	
36	3.600000e-01	5.000000e-01	1.954941e-05	
37	3.700000e-01	5.000000e-01	1.983677e-05	
38	3.800000e-01	5.000000e-01	2.013054e-05	
39	3.900000e-01	5.000000e-01	2.043082e-05	
40	4.000000e-01	5.000000e-01	2.073770e-05	
41	4.100000e-01	5.000000e-01	2.105124e-05	
42	4.200000e-01	5.000000e-01	2.137153e-05	
43	4.300000e-01	5.000000e-01	2.169865e-05	
44	4.400000e-01	5.000000e-01	2.203268e-05	
45	4.500000e-01	5.000000e-01	2.237369e-05	
46	4.600000e-01	5.000000e-01	2.272177e-05	
47	4.700000e-01	5.000000e-01	2.307700e-05	
48	4.800000e-01	5.000000e-01	2.343947e-05	
49	4.900000e-01	5.000000e-01	2.380925e-05	
50	5.000000e-01	5.000000e-01	2.418645e-05	
51	5.100000e-01	5.000000e-01	2.457116e-05	
52	5.200000e-01	5.000000e-01	2.496350e-05	
53	5.300000e-01	5.000000e-01	2.536357e-05	
54	5.400000e-01	5.000000e-01	2.577151e-05	

Index   v-sweep         v(g)            vs#branch       
--------------------------------------------------------------------------------
55	5.500000e-01	5.000000e-01	2.618747e-05	
56	5.600000e-01	5.000000e-01	2.661159e-05	
57	5.700000e-01	5.000000e-01	2.704406e-05	
58	5.800000e-01	5.000000e-01	2.748507e-05	
59	5.900000e-01	5.000000e-01	2.793486e-05	
60	6.000000e-01	5.000000e-01	2.839367e-05	
61	6.100000e-01	5.000000e-01	2.886181e-05	
62	6.200000e-01	5.000000e-01	2.933958e-05	
63	6.300000e-01	5.000000e-01	2.982738e-05	
64	6.400000e-01	5.000000e-01	3.032562e-05	
65	6.500000e-01	5.000000e-01	3.083478e-05	
66	6.600000e-01	5.000000e-01	3.135542e-05	
67	6.700000e-01	5.000000e-01	3.188814e-05	
68	6.800000e-01	5.000000e-01	3.243364e-05	
69	6.900000e-01	5.000000e-01	3.299273e-05	
70	7.000000e-01	5.000000e-01	3.356628e-05	
71	7.100000e-01	5.000000e-01	3.415530e-05	
72	7.200000e-01	5.000000e-01	3.476091e-05	
73	7.300000e-01	5.000000e-01	3.538438e-05	
74	7.400000e-01	5.000000e-01	3.602712e-05	
75	7.500000e-01	5.000000e-01	3.669070e-05	
76	7.600000e-01	5.000000e-01	3.737686e-05	
77	7.700000e-01	5.000000e-01	3.808756e-05	
78	7.800000e-01	5.000000e-01	3.882492e-05	
79	7.900000e-01	5.000000e-01	3.959132e-05	
80	8.000000e-01	5.000000e-01	4.038934e-05	
81	8.100000e-01	5.000000e-01	4.122182e-05	
82	8.200000e-01	5.000000e-01	4.209184e-05	
83	8.300000e-01	5.000000e-01	4.300273e-05	
84	8.400000e-01	5.000000e-01	4.395807e-05	
85	8.500000e-01	5.000000e-01	4.496167e-05	
86	8.600000e-01	5.000000e-01	4.601760e-05	
87	8.700000e-01	5.000000e-01	4.713008e-05	
88	8.800000e-01	5.000000e-01	4.830350e-05	
89	8.900000e-01	5.000000e-01	4.954234e-05	
90	9.000000e-01	5.000000e-01	5.085110e-05	
91	9.100000e-01	5.000000e-01	5.223417e-05	
92	9.200000e-01	5.000000e-01	5.369578e-05	
93	9.300000e-01	5.000000e-01	5.523981e-05	
94	9.400000e-01	5.000000e-01	5.686964e-05	
95	9.500000e-01	5.000000e-01	5.858802e-05	
96	9.600000e-01	5.000000e-01	6.039692e-05	
97	9.700000e-01	5.000000e-01	6.229733e-05	
98	9.800000e-01	5.000000e-01	6.428918e-05	
99	9.900000e-01	5.000000e-01	6.637124e-05	
100	1.000000e+00	5.000000e-01	6.854109e-05	
101	1.010000e+00	5.000000e-01	7.079515e-05	
102	1.020000e+00	5.000000e-01	7.312874e-05	
103	1.030000e+00	5.000000e-01	7.553625e-05	
104	1.040000e+00	5.000000e-01	7.801133e-05	
105	1.050000e+00	5.000000e-01	8.054708e-05	
106	1.060000e+00	5.000000e-01	8.315532e-05	
107	1.070000e+00	5.000000e-01	8.581955e-05	
108	1.080000e+00	5.000000e-01	8.852644e-05	
109	1.090000e+00	5.000000e-01	9.126681e-05	
110	1.100000e+00	5.000000e-01	9.403267e-05	
111	1.110000e+00	5.000000e-01	9.681718e-05	
112	1.120000e+00	5.000000e-01	9.961452e-05	

Index   v-sweep         v(g)            vs#branch       
--------------------------------------------------------------------------------
113	1.130000e+00	5.000000e-01	1.024198e-04	
114	1.140000e+00	5.000000e-01	1.052289e-04	
115	1.150000e+00	5.000000e-01	1.080387e-04	
116	1.160000e+00	5.000000e-01	1.108463e-04	
117	1.170000e+00	5.000000e-01	1.136497e-04	
118	1.180000e+00	5.000000e-01	1.164472e-04	
119	1.190000e+00	5.000000e-01	1.192377e-04	
120	1.200000e+00	5.000000e-01	1.220201e-04	
121	1.210000e+00	5.000000e-01	1.247939e-04	
122	1.220000e+00	5.000000e-01	1.275586e-04	
123	1.230000e+00	5.000000e-01	1.303141e-04	
124	1.240000e+00	5.000000e-01	1.330602e-04	
125	1.250000e+00	5.000000e-01	1.357969e-04	
126	1.260000e+00	5.000000e-01	1.385244e-04	
127	1.270000e+00	5.000000e-01	1.412429e-04	
128	1.280000e+00	5.000000e-01	1.439526e-04	
129	1.290000e+00	5.000000e-01	1.466538e-04	
130	1.300000e+00	5.000000e-01	1.493468e-04	
131	1.310000e+00	5.000000e-01	1.520319e-04	
132	1.320000e+00	5.000000e-01	1.547095e-04	
133	1.330000e+00	5.000000e-01	1.573797e-04	
134	1.340000e+00	5.000000e-01	1.600431e-04	
135	1.350000e+00	5.000000e-01	1.627000e-04	
136	1.360000e+00	5.000000e-01	1.653505e-04	
137	1.370000e+00	5.000000e-01	1.679951e-04	
138	1.380000e+00	5.000000e-01	1.706341e-04	
139	1.390000e+00	5.000000e-01	1.732677e-04	
140	1.400000e+00	5.000000e-01	1.758962e-04	
141	1.410000e+00	5.000000e-01	1.785199e-04	
142	1.420000e+00	5.000000e-01	1.811390e-04	
143	1.430000e+00	5.000000e-01	1.837538e-04	
144	1.440000e+00	5.000000e-01	1.863645e-04	
145	1.450000e+00	5.000000e-01	1.889713e-04	
146	1.460000e+00	5.000000e-01	1.915744e-04	
147	1.470000e+00	5.000000e-01	1.941740e-04	
148	1.480000e+00	5.000000e-01	1.967704e-04	
149	1.490000e+00	5.000000e-01	1.993636e-04	
150	1.500000e+00	5.000000e-01	2.019539e-04	
151	1.510000e+00	5.000000e-01	2.045413e-04	
152	1.520000e+00	5.000000e-01	2.071261e-04	
153	1.530000e+00	5.000000e-01	2.097084e-04	
154	1.540000e+00	5.000000e-01	2.122883e-04	
155	1.550000e+00	5.000000e-01	2.148659e-04	
156	1.560000e+00	5.000000e-01	2.174414e-04	
157	1.570000e+00	5.000000e-01	2.200148e-04	
158	1.580000e+00	5.000000e-01	2.225863e-04	
159	1.590000e+00	5.000000e-01	2.251560e-04	
160	1.600000e+00	5.000000e-01	2.277239e-04	
161	1.610000e+00	5.000000e-01	2.302901e-04	
162	1.620000e+00	5.000000e-01	2.328548e-04	
163	1.630000e+00	5.000000e-01	2.354179e-04	
164	1.640000e+00	5.000000e-01	2.379796e-04	
165	1.650000e+00	5.000000e-01	2.405399e-04	
166	1.660000e+00	5.000000e-01	2.430988e-04	
167	1.670000e+00	5.000000e-01	2.456565e-04	
168	1.680000e+00	5.000000e-01	2.482129e-04	
169	1.690000e+00	5.000000e-01	2.507682e-04	
170	1.700000e+00	5.000000e-01	2.533223e-04	

Index   v-sweep         v(g)            vs#branch       
--------------------------------------------------------------------------------
171	1.710000e+00	5.000000e-01	2.558752e-04	
172	1.720000e+00	5.000000e-01	2.584270e-04	
173	1.730000e+00	5.000000e-01	2.609778e-04	
174	1.740000e+00	5.000000e-01	2.635275e-04	
175	1.750000e+00	5.000000e-01	2.660762e-04	
176	1.760000e+00	5.000000e-01	2.686238e-04	
177	1.770000e+00	5.000000e-01	2.711704e-04	
178	1.780000e+00	5.000000e-01	2.737159e-04	
179	1.790000e+00	5.000000e-01	2.762604e-04	
180	1.800000e+00	5.000000e-01	2.788039e-04	
181	1.810000e+00	5.000000e-01	2.813463e-04	
182	1.820000e+00	5.000000e-01	2.838877e-04	
183	1.830000e+00	5.000000e-01	2.864280e-04	
184	1.840000e+00	5.000000e-01	2.889672e-04	
185	1.850000e+00	5.000000e-01	2.915053e-04	
186	1.860000e+00	5.000000e-01	2.940423e-04	
187	1.870000e+00	5.000000e-01	2.965781e-04	
188	1.880000e+00	5.000000e-01	2.991127e-04	
189	1.890000e+00	5.000000e-01	3.016462e-04	
190	1.900000e+00	5.000000e-01	3.041784e-04	
191	1.910000e+00	5.000000e-01	3.067094e-04	
192	1.920000e+00	5.000000e-01	3.092391e-04	
193	1.930000e+00	5.000000e-01	3.117675e-04	
194	1.940000e+00	5.000000e-01	3.142946e-04	
195	1.950000e+00	5.000000e-01	3.168203e-04	
196	1.960000e+00	5.000000e-01	3.193446e-04	
197	1.970000e+00	5.000000e-01	3.218676e-04	
198	1.980000e+00	5.000000e-01	3.243891e-04	
199	1.990000e+00	5.000000e-01	3.269091e-04	
200	2.000000e+00	5.000000e-01	3.294277e-04	
201	2.010000e+00	5.000000e-01	3.319447e-04	
202	2.020000e+00	5.000000e-01	3.344603e-04	
203	2.030000e+00	5.000000e-01	3.369743e-04	
204	2.040000e+00	5.000000e-01	3.394867e-04	
205	2.050000e+00	5.000000e-01	3.419975e-04	
206	2.060000e+00	5.000000e-01	3.445068e-04	
207	2.070000e+00	5.000000e-01	3.470144e-04	
208	2.080000e+00	5.000000e-01	3.495205e-04	
209	2.090000e+00	5.000000e-01	3.520248e-04	
210	2.100000e+00	5.000000e-01	3.545275e-04	
211	2.110000e+00	5.000000e-01	3.570286e-04	
212	2.120000e+00	5.000000e-01	3.595280e-04	
213	2.130000e+00	5.000000e-01	3.620257e-04	
214	2.140000e+00	5.000000e-01	3.645218e-04	
215	2.150000e+00	5.000000e-01	3.670161e-04	
216	2.160000e+00	5.000000e-01	3.695088e-04	
217	2.170000e+00	5.000000e-01	3.719997e-04	
218	2.180000e+00	5.000000e-01	3.744890e-04	
219	2.190000e+00	5.000000e-01	3.769765e-04	
220	2.200000e+00	5.000000e-01	3.794624e-04	
221	2.210000e+00	5.000000e-01	3.819465e-04	
222	2.220000e+00	5.000000e-01	3.844290e-04	
223	2.230000e+00	5.000000e-01	3.869098e-04	
224	2.240000e+00	5.000000e-01	3.893889e-04	
225	2.250000e+00	5.000000e-01	3.918662e-04	
226	2.260000e+00	5.000000e-01	3.943420e-04	
227	2.270000e+00	5.000000e-01	3.968160e-04	
228	2.280000e+00	5.000000e-01	3.992884e-04	

Index   v-sweep         v(g)            vs#branch       
--------------------------------------------------------------------------------
229	2.290000e+00	5.000000e-01	4.017590e-04	
230	2.300000e+00	5.000000e-01	4.042281e-04	
231	2.310000e+00	5.000000e-01	4.066955e-04	
232	2.320000e+00	5.000000e-01	4.091612e-04	
233	2.330000e+00	5.000000e-01	4.116253e-04	
234	2.340000e+00	5.000000e-01	4.140878e-04	
235	2.350000e+00	5.000000e-01	4.165487e-04	
236	2.360000e+00	5.000000e-01	4.190080e-04	
237	2.370000e+00	5.000000e-01	4.214657e-04	
238	2.380000e+00	5.000000e-01	4.239218e-04	
239	2.390000e+00	5.000000e-01	4.263763e-04	
240	2.400000e+00	5.000000e-01	4.288293e-04	
241	2.410000e+00	5.000000e-01	4.312807e-04	
242	2.420000e+00	5.000000e-01	4.337306e-04	
243	2.430000e+00	5.000000e-01	4.361789e-04	
244	2.440000e+00	5.000000e-01	4.386258e-04	
245	2.450000e+00	5.000000e-01	4.410711e-04	
246	2.460000e+00	5.000000e-01	4.435150e-04	
247	2.470000e+00	5.000000e-01	4.459573e-04	
248	2.480000e+00	5.000000e-01	4.483982e-04	
249	2.490000e+00	5.000000e-01	4.508377e-04	
250	2.500000e+00	5.000000e-01	4.532757e-04	
251	2.510000e+00	5.000000e-01	4.557123e-04	
252	2.520000e+00	5.000000e-01	4.581475e-04	
253	2.530000e+00	5.000000e-01	4.605813e-04	
254	2.540000e+00	5.000000e-01	4.630137e-04	
255	2.550000e+00	5.000000e-01	4.654448e-04	
256	2.560000e+00	5.000000e-01	4.678745e-04	
257	2.570000e+00	5.000000e-01	4.703028e-04	
258	2.580000e+00	5.000000e-01	4.727299e-04	
259	2.590000e+00	5.000000e-01	4.751556e-04	
260	2.600000e+00	5.000000e-01	4.775800e-04	
261	2.610000e+00	5.000000e-01	4.800032e-04	
262	2.620000e+00	5.000000e-01	4.824250e-04	
263	2.630000e+00	5.000000e-01	4.848457e-04	
264	2.640000e+00	5.000000e-01	4.872650e-04	
265	2.650000e+00	5.000000e-01	4.896832e-04	
266	2.660000e+00	5.000000e-01	4.921001e-04	
267	2.670000e+00	5.000000e-01	4.945159e-04	
268	2.680000e+00	5.000000e-01	4.969305e-04	
269	2.690000e+00	5.000000e-01	4.993439e-04	
270	2.700000e+00	5.000000e-01	5.017561e-04	
271	2.710000e+00	5.000000e-01	5.041673e-04	
272	2.720000e+00	5.000000e-01	5.065773e-04	
273	2.730000e+00	5.000000e-01	5.089862e-04	
274	2.740000e+00	5.000000e-01	5.113940e-04	
275	2.750000e+00	5.000000e-01	5.138007e-04	
276	2.760000e+00	5.000000e-01	5.162064e-04	
277	2.770000e+00	5.000000e-01	5.186110e-04	
278	2.780000e+00	5.000000e-01	5.210146e-04	
279	2.790000e+00	5.000000e-01	5.234172e-04	
280	2.800000e+00	5.000000e-01	5.258188e-04	
281	2.810000e+00	5.000000e-01	5.282194e-04	
282	2.820000e+00	5.000000e-01	5.306190e-04	
283	2.830000e+00	5.000000e-01	5.330177e-04	
284	2.840000e+00	5.000000e-01	5.354155e-04	
285	2.850000e+00	5.000000e-01	5.378123e-04	
286	2.860000e+00	5.000000e-01	5.402082e-04	

Index   v-sweep         v(g)            vs#branch       
--------------------------------------------------------------------------------
287	2.870000e+00	5.000000e-01	5.426032e-04	
288	2.880000e+00	5.000000e-01	5.449974e-04	
289	2.890000e+00	5.000000e-01	5.473907e-04	
290	2.900000e+00	5.000000e-01	5.497831e-04	
291	2.910000e+00	5.000000e-01	5.521747e-04	
292	2.920000e+00	5.000000e-01	5.545655e-04	
293	2.930000e+00	5.000000e-01	5.569555e-04	
294	2.940000e+00	5.000000e-01	5.593448e-04	
295	2.950000e+00	5.000000e-01	5.617332e-04	
296	2.960000e+00	5.000000e-01	5.641209e-04	
297	2.970000e+00	5.000000e-01	5.665079e-04	
298	2.980000e+00	5.000000e-01	5.688941e-04	
299	2.990000e+00	5.000000e-01	5.712796e-04	
300	3.000000e+00	5.000000e-01	5.736645e-04	
301	0.000000e+00	1.000000e+00	-3.547623e-41	
302	1.000000e-02	1.000000e+00	3.715407e-05	
303	2.000000e-02	1.000000e+00	7.321271e-05	
304	3.000000e-02	1.000000e+00	1.081949e-04	
305	4.000000e-02	1.000000e+00	1.421186e-04	
306	5.000000e-02	1.000000e+00	1.750005e-04	
307	6.000000e-02	1.000000e+00	2.068564e-04	
308	7.000000e-02	1.000000e+00	2.377013e-04	
309	8.000000e-02	1.000000e+00	2.675495e-04	
310	9.000000e-02	1.000000e+00	2.964147e-04	
311	1.000000e-01	1.000000e+00	3.243101e-04	
312	1.100000e-01	1.000000e+00	3.512487e-04	
313	1.200000e-01	1.000000e+00	3.772430e-04	
314	1.300000e-01	1.000000e+00	4.023054e-04	
315	1.400000e-01	1.000000e+00	4.264481e-04	
316	1.500000e-01	1.000000e+00	4.496832e-04	
317	1.600000e-01	1.000000e+00	4.724684e-04	
318	1.700000e-01	1.000000e+00	4.939185e-04	
319	1.800000e-01	1.000000e+00	5.144968e-04	
320	1.900000e-01	1.000000e+00	5.342157e-04	
321	2.000000e-01	1.000000e+00	5.530872e-04	
322	2.100000e-01	1.000000e+00	5.711238e-04	
323	2.200000e-01	1.000000e+00	5.883381e-04	
324	2.300000e-01	1.000000e+00	6.047429e-04	
325	2.400000e-01	1.000000e+00	6.203516e-04	
326	2.500000e-01	1.000000e+00	6.351782e-04	
327	2.600000e-01	1.000000e+00	6.492373e-04	
328	2.700000e-01	1.000000e+00	6.625447e-04	
329	2.800000e-01	1.000000e+00	6.751172e-04	
330	2.900000e-01	1.000000e+00	6.869730e-04	
331	3.000000e-01	1.000000e+00	6.981323e-04	
332	3.100000e-01	1.000000e+00	7.086173e-04	
333	3.200000e-01	1.000000e+00	7.184528e-04	
334	3.300000e-01	1.000000e+00	7.276660e-04	
335	3.400000e-01	1.000000e+00	7.362876e-04	
336	3.500000e-01	1.000000e+00	7.443511e-04	
337	3.600000e-01	1.000000e+00	7.518929e-04	
338	3.700000e-01	1.000000e+00	7.589521e-04	
339	3.800000e-01	1.000000e+00	7.655696e-04	
340	3.900000e-01	1.000000e+00	7.717874e-04	
341	4.000000e-01	1.000000e+00	7.776473e-04	
342	4.100000e-01	1.000000e+00	7.831903e-04	
343	4.200000e-01	1.000000e+00	7.884548e-04	
344	4.300000e-01	1.000000e+00	7.934768e-04	

Index   v-sweep         v(g)            vs#branch       
--------------------------------------------------------------------------------
345	4.400000e-01	1.000000e+00	7.982888e-04	
346	4.500000e-01	1.000000e+00	8.029197e-04	
347	4.600000e-01	1.000000e+00	8.073950e-04	
348	4.700000e-01	1.000000e+00	8.117367e-04	
349	4.800000e-01	1.000000e+00	8.159639e-04	
350	4.900000e-01	1.000000e+00	8.200930e-04	
351	5.000000e-01	1.000000e+00	8.241379e-04	
352	5.100000e-01	1.000000e+00	8.281107e-04	
353	5.200000e-01	1.000000e+00	8.320217e-04	
354	5.300000e-01	1.000000e+00	8.358797e-04	
355	5.400000e-01	1.000000e+00	8.396924e-04	
356	5.500000e-01	1.000000e+00	8.434666e-04	
357	5.600000e-01	1.000000e+00	8.472083e-04	
358	5.700000e-01	1.000000e+00	8.509228e-04	
359	5.800000e-01	1.000000e+00	8.546151e-04	
360	5.900000e-01	1.000000e+00	8.582896e-04	
361	6.000000e-01	1.000000e+00	8.619507e-04	
362	6.100000e-01	1.000000e+00	8.656027e-04	
363	6.200000e-01	1.000000e+00	8.692496e-04	
364	6.300000e-01	1.000000e+00	8.728958e-04	
365	6.400000e-01	1.000000e+00	8.765457e-04	
366	6.500000e-01	1.000000e+00	8.802041e-04	
367	6.600000e-01	1.000000e+00	8.838759e-04	
368	6.700000e-01	1.000000e+00	8.875669e-04	
369	6.800000e-01	1.000000e+00	8.912829e-04	
370	6.900000e-01	1.000000e+00	8.950309e-04	
371	7.000000e-01	1.000000e+00	8.988182e-04	
372	7.100000e-01	1.000000e+00	9.026533e-04	
373	7.200000e-01	1.000000e+00	9.065454e-04	
374	7.300000e-01	1.000000e+00	9.105048e-04	
375	7.400000e-01	1.000000e+00	9.145426e-04	
376	7.500000e-01	1.000000e+00	9.186715e-04	
377	7.600000e-01	1.000000e+00	9.229047e-04	
378	7.700000e-01	1.000000e+00	9.272569e-04	
379	7.800000e-01	1.000000e+00	9.317435e-04	
380	7.900000e-01	1.000000e+00	9.363810e-04	
381	8.000000e-01	1.000000e+00	9.411863e-04	
382	8.100000e-01	1.000000e+00	9.461768e-04	
383	8.200000e-01	1.000000e+00	9.513700e-04	
384	8.300000e-01	1.000000e+00	9.567827e-04	
385	8.400000e-01	1.000000e+00	9.624311e-04	
386	8.500000e-01	1.000000e+00	9.683298e-04	
387	8.600000e-01	1.000000e+00	9.744915e-04	
388	8.700000e-01	1.000000e+00	9.809259e-04	
389	8.800000e-01	1.000000e+00	9.876399e-04	
390	8.900000e-01	1.000000e+00	9.946365e-04	
391	9.000000e-01	1.000000e+00	1.001914e-03	
392	9.100000e-01	1.000000e+00	1.009468e-03	
393	9.200000e-01	1.000000e+00	1.017288e-03	
394	9.300000e-01	1.000000e+00	1.025359e-03	
395	9.400000e-01	1.000000e+00	1.033663e-03	
396	9.500000e-01	1.000000e+00	1.042178e-03	
397	9.600000e-01	1.000000e+00	1.050879e-03	
398	9.700000e-01	1.000000e+00	1.059740e-03	
399	9.800000e-01	1.000000e+00	1.068731e-03	
400	9.900000e-01	1.000000e+00	1.077824e-03	
401	1.000000e+00	1.000000e+00	1.086989e-03	
402	1.010000e+00	1.000000e+00	1.096200e-03	

Index   v-sweep         v(g)            vs#branch       
--------------------------------------------------------------------------------
403	1.020000e+00	1.000000e+00	1.105481e-03	
404	1.030000e+00	1.000000e+00	1.114797e-03	
405	1.040000e+00	1.000000e+00	1.124094e-03	
406	1.050000e+00	1.000000e+00	1.133346e-03	
407	1.060000e+00	1.000000e+00	1.142531e-03	
408	1.070000e+00	1.000000e+00	1.151634e-03	
409	1.080000e+00	1.000000e+00	1.160643e-03	
410	1.090000e+00	1.000000e+00	1.169548e-03	
411	1.100000e+00	1.000000e+00	1.178344e-03	
412	1.110000e+00	1.000000e+00	1.187027e-03	
413	1.120000e+00	1.000000e+00	1.195595e-03	
414	1.130000e+00	1.000000e+00	1.204047e-03	
415	1.140000e+00	1.000000e+00	1.212385e-03	
416	1.150000e+00	1.000000e+00	1.220610e-03	
417	1.160000e+00	1.000000e+00	1.228724e-03	
418	1.170000e+00	1.000000e+00	1.236730e-03	
419	1.180000e+00	1.000000e+00	1.244631e-03	
420	1.190000e+00	1.000000e+00	1.252430e-03	
421	1.200000e+00	1.000000e+00	1.260130e-03	
422	1.210000e+00	1.000000e+00	1.267736e-03	
423	1.220000e+00	1.000000e+00	1.275250e-03	
424	1.230000e+00	1.000000e+00	1.282676e-03	
425	1.240000e+00	1.000000e+00	1.290018e-03	
426	1.250000e+00	1.000000e+00	1.297279e-03	
427	1.260000e+00	1.000000e+00	1.304462e-03	
428	1.270000e+00	1.000000e+00	1.311570e-03	
429	1.280000e+00	1.000000e+00	1.318605e-03	
430	1.290000e+00	1.000000e+00	1.325572e-03	
431	1.300000e+00	1.000000e+00	1.332472e-03	
432	1.310000e+00	1.000000e+00	1.339309e-03	
433	1.320000e+00	1.000000e+00	1.346084e-03	
434	1.330000e+00	1.000000e+00	1.352800e-03	
435	1.340000e+00	1.000000e+00	1.359458e-03	
436	1.350000e+00	1.000000e+00	1.366062e-03	
437	1.360000e+00	1.000000e+00	1.372614e-03	
438	1.370000e+00	1.000000e+00	1.379114e-03	
439	1.380000e+00	1.000000e+00	1.385565e-03	
440	1.390000e+00	1.000000e+00	1.391968e-03	
441	1.400000e+00	1.000000e+00	1.398325e-03	
442	1.410000e+00	1.000000e+00	1.404638e-03	
443	1.420000e+00	1.000000e+00	1.410908e-03	
444	1.430000e+00	1.000000e+00	1.417136e-03	
445	1.440000e+00	1.000000e+00	1.423324e-03	
446	1.450000e+00	1.000000e+00	1.429473e-03	
447	1.460000e+00	1.000000e+00	1.435584e-03	
448	1.470000e+00	1.000000e+00	1.441658e-03	
449	1.480000e+00	1.000000e+00	1.447696e-03	
450	1.490000e+00	1.000000e+00	1.453700e-03	
451	1.500000e+00	1.000000e+00	1.459670e-03	
452	1.510000e+00	1.000000e+00	1.465607e-03	
453	1.520000e+00	1.000000e+00	1.471512e-03	
454	1.530000e+00	1.000000e+00	1.477386e-03	
455	1.540000e+00	1.000000e+00	1.483230e-03	
456	1.550000e+00	1.000000e+00	1.489044e-03	
457	1.560000e+00	1.000000e+00	1.494829e-03	
458	1.570000e+00	1.000000e+00	1.500586e-03	
459	1.580000e+00	1.000000e+00	1.506316e-03	
460	1.590000e+00	1.000000e+00	1.512018e-03	

Index   v-sweep         v(g)            vs#branch       
--------------------------------------------------------------------------------
461	1.600000e+00	1.000000e+00	1.517694e-03	
462	1.610000e+00	1.000000e+00	1.523345e-03	
463	1.620000e+00	1.000000e+00	1.528970e-03	
464	1.630000e+00	1.000000e+00	1.534570e-03	
465	1.640000e+00	1.000000e+00	1.540146e-03	
466	1.650000e+00	1.000000e+00	1.545698e-03	
467	1.660000e+00	1.000000e+00	1.551227e-03	
468	1.670000e+00	1.000000e+00	1.556733e-03	
469	1.680000e+00	1.000000e+00	1.562216e-03	
470	1.690000e+00	1.000000e+00	1.567676e-03	
471	1.700000e+00	1.000000e+00	1.573115e-03	
472	1.710000e+00	1.000000e+00	1.578532e-03	
473	1.720000e+00	1.000000e+00	1.583927e-03	
474	1.730000e+00	1.000000e+00	1.589302e-03	
475	1.740000e+00	1.000000e+00	1.594656e-03	
476	1.750000e+00	1.000000e+00	1.599989e-03	
477	1.760000e+00	1.000000e+00	1.605301e-03	
478	1.770000e+00	1.000000e+00	1.610594e-03	
479	1.780000e+00	1.000000e+00	1.615867e-03	
480	1.790000e+00	1.000000e+00	1.621120e-03	
481	1.800000e+00	1.000000e+00	1.626354e-03	
482	1.810000e+00	1.000000e+00	1.631568e-03	
483	1.820000e+00	1.000000e+00	1.636764e-03	
484	1.830000e+00	1.000000e+00	1.641940e-03	
485	1.840000e+00	1.000000e+00	1.647099e-03	
486	1.850000e+00	1.000000e+00	1.652238e-03	
487	1.860000e+00	1.000000e+00	1.657360e-03	
488	1.870000e+00	1.000000e+00	1.662463e-03	
489	1.880000e+00	1.000000e+00	1.667549e-03	
490	1.890000e+00	1.000000e+00	1.672617e-03	
491	1.900000e+00	1.000000e+00	1.677667e-03	
492	1.910000e+00	1.000000e+00	1.682700e-03	
493	1.920000e+00	1.000000e+00	1.687716e-03	
494	1.930000e+00	1.000000e+00	1.692715e-03	
495	1.940000e+00	1.000000e+00	1.697697e-03	
496	1.950000e+00	1.000000e+00	1.702663e-03	
497	1.960000e+00	1.000000e+00	1.707612e-03	
498	1.970000e+00	1.000000e+00	1.712545e-03	
499	1.980000e+00	1.000000e+00	1.717462e-03	
500	1.990000e+00	1.000000e+00	1.722363e-03	
501	2.000000e+00	1.000000e+00	1.727248e-03	
502	2.010000e+00	1.000000e+00	1.732118e-03	
503	2.020000e+00	1.000000e+00	1.736973e-03	
504	2.030000e+00	1.000000e+00	1.741812e-03	
505	2.040000e+00	1.000000e+00	1.746637e-03	
506	2.050000e+00	1.000000e+00	1.751446e-03	
507	2.060000e+00	1.000000e+00	1.756241e-03	
508	2.070000e+00	1.000000e+00	1.761021e-03	
509	2.080000e+00	1.000000e+00	1.765788e-03	
510	2.090000e+00	1.000000e+00	1.770539e-03	
511	2.100000e+00	1.000000e+00	1.775277e-03	
512	2.110000e+00	1.000000e+00	1.780002e-03	
513	2.120000e+00	1.000000e+00	1.784712e-03	
514	2.130000e+00	1.000000e+00	1.789409e-03	
515	2.140000e+00	1.000000e+00	1.794093e-03	
516	2.150000e+00	1.000000e+00	1.798763e-03	
517	2.160000e+00	1.000000e+00	1.803421e-03	
518	2.170000e+00	1.000000e+00	1.808065e-03	

Index   v-sweep         v(g)            vs#branch       
--------------------------------------------------------------------------------
519	2.180000e+00	1.000000e+00	1.812697e-03	
520	2.190000e+00	1.000000e+00	1.817317e-03	
521	2.200000e+00	1.000000e+00	1.821923e-03	
522	2.210000e+00	1.000000e+00	1.826518e-03	
523	2.220000e+00	1.000000e+00	1.831101e-03	
524	2.230000e+00	1.000000e+00	1.835671e-03	
525	2.240000e+00	1.000000e+00	1.840230e-03	
526	2.250000e+00	1.000000e+00	1.844777e-03	
527	2.260000e+00	1.000000e+00	1.849313e-03	
528	2.270000e+00	1.000000e+00	1.853837e-03	
529	2.280000e+00	1.000000e+00	1.858350e-03	
530	2.290000e+00	1.000000e+00	1.862852e-03	
531	2.300000e+00	1.000000e+00	1.867342e-03	
532	2.310000e+00	1.000000e+00	1.871822e-03	
533	2.320000e+00	1.000000e+00	1.876291e-03	
534	2.330000e+00	1.000000e+00	1.880750e-03	
535	2.340000e+00	1.000000e+00	1.885198e-03	
536	2.350000e+00	1.000000e+00	1.889636e-03	
537	2.360000e+00	1.000000e+00	1.894063e-03	
538	2.370000e+00	1.000000e+00	1.898481e-03	
539	2.380000e+00	1.000000e+00	1.902888e-03	
540	2.390000e+00	1.000000e+00	1.907286e-03	
541	2.400000e+00	1.000000e+00	1.911674e-03	
542	2.410000e+00	1.000000e+00	1.916052e-03	
543	2.420000e+00	1.000000e+00	1.920421e-03	
544	2.430000e+00	1.000000e+00	1.924780e-03	
545	2.440000e+00	1.000000e+00	1.929130e-03	
546	2.450000e+00	1.000000e+00	1.933471e-03	
547	2.460000e+00	1.000000e+00	1.937803e-03	
548	2.470000e+00	1.000000e+00	1.942125e-03	
549	2.480000e+00	1.000000e+00	1.946439e-03	
550	2.490000e+00	1.000000e+00	1.950745e-03	
551	2.500000e+00	1.000000e+00	1.955041e-03	
552	2.510000e+00	1.000000e+00	1.959330e-03	
553	2.520000e+00	1.000000e+00	1.963609e-03	
554	2.530000e+00	1.000000e+00	1.967881e-03	
555	2.540000e+00	1.000000e+00	1.972144e-03	
556	2.550000e+00	1.000000e+00	1.976399e-03	
557	2.560000e+00	1.000000e+00	1.980646e-03	
558	2.570000e+00	1.000000e+00	1.984885e-03	
559	2.580000e+00	1.000000e+00	1.989116e-03	
560	2.590000e+00	1.000000e+00	1.993340e-03	
561	2.600000e+00	1.000000e+00	1.997556e-03	
562	2.610000e+00	1.000000e+00	2.001764e-03	
563	2.620000e+00	1.000000e+00	2.005965e-03	
564	2.630000e+00	1.000000e+00	2.010159e-03	
565	2.640000e+00	1.000000e+00	2.014345e-03	
566	2.650000e+00	1.000000e+00	2.018525e-03	
567	2.660000e+00	1.000000e+00	2.022697e-03	
568	2.670000e+00	1.000000e+00	2.026862e-03	
569	2.680000e+00	1.000000e+00	2.031020e-03	
570	2.690000e+00	1.000000e+00	2.035171e-03	
571	2.700000e+00	1.000000e+00	2.039316e-03	
572	2.710000e+00	1.000000e+00	2.043454e-03	
573	2.720000e+00	1.000000e+00	2.047585e-03	
574	2.730000e+00	1.000000e+00	2.051710e-03	
575	2.740000e+00	1.000000e+00	2.055829e-03	
576	2.750000e+00	1.000000e+00	2.059941e-03	

Index   v-sweep         v(g)            vs#branch       
--------------------------------------------------------------------------------
577	2.760000e+00	1.000000e+00	2.064047e-03	
578	2.770000e+00	1.000000e+00	2.068147e-03	
579	2.780000e+00	1.000000e+00	2.072241e-03	
580	2.790000e+00	1.000000e+00	2.076328e-03	
581	2.800000e+00	1.000000e+00	2.080410e-03	
582	2.810000e+00	1.000000e+00	2.084486e-03	
583	2.820000e+00	1.000000e+00	2.088556e-03	
584	2.830000e+00	1.000000e+00	2.092621e-03	
585	2.840000e+00	1.000000e+00	2.096680e-03	
586	2.850000e+00	1.000000e+00	2.100733e-03	
587	2.860000e+00	1.000000e+00	2.104781e-03	
588	2.870000e+00	1.000000e+00	2.108823e-03	
589	2.880000e+00	1.000000e+00	2.112860e-03	
590	2.890000e+00	1.000000e+00	2.116892e-03	
591	2.900000e+00	1.000000e+00	2.120919e-03	
592	2.910000e+00	1.000000e+00	2.124941e-03	
593	2.920000e+00	1.000000e+00	2.128957e-03	
594	2.930000e+00	1.000000e+00	2.132969e-03	
595	2.940000e+00	1.000000e+00	2.136975e-03	
596	2.950000e+00	1.000000e+00	2.140977e-03	
597	2.960000e+00	1.000000e+00	2.144974e-03	
598	2.970000e+00	1.000000e+00	2.148966e-03	
599	2.980000e+00	1.000000e+00	2.152954e-03	
600	2.990000e+00	1.000000e+00	2.156937e-03	
601	3.000000e+00	1.000000e+00	2.160916e-03	
602	0.000000e+00	1.500000e+00	-3.009338e-36	
603	1.000000e-02	1.500000e+00	6.670045e-05	
604	2.000000e-02	1.500000e+00	1.321933e-04	
605	3.000000e-02	1.500000e+00	1.964976e-04	
606	4.000000e-02	1.500000e+00	2.596311e-04	
607	5.000000e-02	1.500000e+00	3.216106e-04	
608	6.000000e-02	1.500000e+00	3.824518e-04	
609	7.000000e-02	1.500000e+00	4.421697e-04	
610	8.000000e-02	1.500000e+00	5.007785e-04	
611	9.000000e-02	1.500000e+00	5.582918e-04	
612	1.000000e-01	1.500000e+00	6.147226e-04	
613	1.100000e-01	1.500000e+00	6.706166e-04	
614	1.200000e-01	1.500000e+00	7.249146e-04	
615	1.300000e-01	1.500000e+00	7.781672e-04	
616	1.400000e-01	1.500000e+00	8.303866e-04	
617	1.500000e-01	1.500000e+00	8.815844e-04	
618	1.600000e-01	1.500000e+00	9.317721e-04	
619	1.700000e-01	1.500000e+00	9.809609e-04	
620	1.800000e-01	1.500000e+00	1.029162e-03	
621	1.900000e-01	1.500000e+00	1.076387e-03	
622	2.000000e-01	1.500000e+00	1.122645e-03	
623	2.100000e-01	1.500000e+00	1.167949e-03	
624	2.200000e-01	1.500000e+00	1.212308e-03	
625	2.300000e-01	1.500000e+00	1.255733e-03	
626	2.400000e-01	1.500000e+00	1.298234e-03	
627	2.500000e-01	1.500000e+00	1.339822e-03	
628	2.600000e-01	1.500000e+00	1.380505e-03	
629	2.700000e-01	1.500000e+00	1.420294e-03	
630	2.800000e-01	1.500000e+00	1.459199e-03	
631	2.900000e-01	1.500000e+00	1.497228e-03	
632	3.000000e-01	1.500000e+00	1.534392e-03	
633	3.100000e-01	1.500000e+00	1.570698e-03	
634	3.200000e-01	1.500000e+00	1.606157e-03	

Index   v-sweep         v(g)            vs#branch       
--------------------------------------------------------------------------------
635	3.300000e-01	1.500000e+00	1.640776e-03	
636	3.400000e-01	1.500000e+00	1.674565e-03	
637	3.500000e-01	1.500000e+00	1.707531e-03	
638	3.600000e-01	1.500000e+00	1.739683e-03	
639	3.700000e-01	1.500000e+00	1.771030e-03	
640	3.800000e-01	1.500000e+00	1.801579e-03	
641	3.900000e-01	1.500000e+00	1.831338e-03	
642	4.000000e-01	1.500000e+00	1.860315e-03	
643	4.100000e-01	1.500000e+00	1.888518e-03	
644	4.200000e-01	1.500000e+00	1.915955e-03	
645	4.300000e-01	1.500000e+00	1.942632e-03	
646	4.400000e-01	1.500000e+00	1.968558e-03	
647	4.500000e-01	1.500000e+00	1.993740e-03	
648	4.600000e-01	1.500000e+00	2.018185e-03	
649	4.700000e-01	1.500000e+00	2.041901e-03	
650	4.800000e-01	1.500000e+00	2.064895e-03	
651	4.900000e-01	1.500000e+00	2.087176e-03	
652	5.000000e-01	1.500000e+00	2.108751e-03	
653	5.100000e-01	1.500000e+00	2.129627e-03	
654	5.200000e-01	1.500000e+00	2.149814e-03	
655	5.300000e-01	1.500000e+00	2.169320e-03	
656	5.400000e-01	1.500000e+00	2.188153e-03	
657	5.500000e-01	1.500000e+00	2.206323e-03	
658	5.600000e-01	1.500000e+00	2.223841e-03	
659	5.700000e-01	1.500000e+00	2.240717e-03	
660	5.800000e-01	1.500000e+00	2.256963e-03	
661	5.900000e-01	1.500000e+00	2.272592e-03	
662	6.000000e-01	1.500000e+00	2.287618e-03	
663	6.100000e-01	1.500000e+00	2.302055e-03	
664	6.200000e-01	1.500000e+00	2.315922e-03	
665	6.300000e-01	1.500000e+00	2.329235e-03	
666	6.400000e-01	1.500000e+00	2.342014e-03	
667	6.500000e-01	1.500000e+00	2.354282e-03	
668	6.600000e-01	1.500000e+00	2.366060e-03	
669	6.700000e-01	1.500000e+00	2.377373e-03	
670	6.800000e-01	1.500000e+00	2.388245e-03	
671	6.900000e-01	1.500000e+00	2.398704e-03	
672	7.000000e-01	1.500000e+00	2.408774e-03	
673	7.100000e-01	1.500000e+00	2.418484e-03	
674	7.200000e-01	1.500000e+00	2.427859e-03	
675	7.300000e-01	1.500000e+00	2.436926e-03	
676	7.400000e-01	1.500000e+00	2.445712e-03	
677	7.500000e-01	1.500000e+00	2.454241e-03	
678	7.600000e-01	1.500000e+00	2.462538e-03	
679	7.700000e-01	1.500000e+00	2.470629e-03	
680	7.800000e-01	1.500000e+00	2.478536e-03	
681	7.900000e-01	1.500000e+00	2.486283e-03	
682	8.000000e-01	1.500000e+00	2.493894e-03	
683	8.100000e-01	1.500000e+00	2.501392e-03	
684	8.200000e-01	1.500000e+00	2.508799e-03	
685	8.300000e-01	1.500000e+00	2.516141e-03	
686	8.400000e-01	1.500000e+00	2.523442e-03	
687	8.500000e-01	1.500000e+00	2.530726e-03	
688	8.600000e-01	1.500000e+00	2.538022e-03	
689	8.700000e-01	1.500000e+00	2.545355e-03	
690	8.800000e-01	1.500000e+00	2.552756e-03	
691	8.900000e-01	1.500000e+00	2.560254e-03	
692	9.000000e-01	1.500000e+00	2.567881e-03	

Index   v-sweep         v(g)            vs#branch       
--------------------------------------------------------------------------------
693	9.100000e-01	1.500000e+00	2.575669e-03	
694	9.200000e-01	1.500000e+00	2.583650e-03	
695	9.300000e-01	1.500000e+00	2.591858e-03	
696	9.400000e-01	1.500000e+00	2.600325e-03	
697	9.500000e-01	1.500000e+00	2.609080e-03	
698	9.600000e-01	1.500000e+00	2.618153e-03	
699	9.700000e-01	1.500000e+00	2.627567e-03	
700	9.800000e-01	1.500000e+00	2.637344e-03	
701	9.900000e-01	1.500000e+00	2.647497e-03	
702	1.000000e+00	1.500000e+00	2.658034e-03	
703	1.010000e+00	1.500000e+00	2.668955e-03	
704	1.020000e+00	1.500000e+00	2.680254e-03	
705	1.030000e+00	1.500000e+00	2.691914e-03	
706	1.040000e+00	1.500000e+00	2.703913e-03	
707	1.050000e+00	1.500000e+00	2.716221e-03	
708	1.060000e+00	1.500000e+00	2.728803e-03	
709	1.070000e+00	1.500000e+00	2.741618e-03	
710	1.080000e+00	1.500000e+00	2.754623e-03	
711	1.090000e+00	1.500000e+00	2.767774e-03	
712	1.100000e+00	1.500000e+00	2.781043e-03	
713	1.110000e+00	1.500000e+00	2.794473e-03	
714	1.120000e+00	1.500000e+00	2.807941e-03	
715	1.130000e+00	1.500000e+00	2.821394e-03	
716	1.140000e+00	1.500000e+00	2.834790e-03	
717	1.150000e+00	1.500000e+00	2.848095e-03	
718	1.160000e+00	1.500000e+00	2.861281e-03	
719	1.170000e+00	1.500000e+00	2.874327e-03	
720	1.180000e+00	1.500000e+00	2.887219e-03	
721	1.190000e+00	1.500000e+00	2.899944e-03	
722	1.200000e+00	1.500000e+00	2.912496e-03	
723	1.210000e+00	1.500000e+00	2.924870e-03	
724	1.220000e+00	1.500000e+00	2.937065e-03	
725	1.230000e+00	1.500000e+00	2.949081e-03	
726	1.240000e+00	1.500000e+00	2.960920e-03	
727	1.250000e+00	1.500000e+00	2.972584e-03	
728	1.260000e+00	1.500000e+00	2.984078e-03	
729	1.270000e+00	1.500000e+00	2.995407e-03	
730	1.280000e+00	1.500000e+00	3.006575e-03	
731	1.290000e+00	1.500000e+00	3.017588e-03	
732	1.300000e+00	1.500000e+00	3.028450e-03	
733	1.310000e+00	1.500000e+00	3.039169e-03	
734	1.320000e+00	1.500000e+00	3.049747e-03	
735	1.330000e+00	1.500000e+00	3.060193e-03	
736	1.340000e+00	1.500000e+00	3.070509e-03	
737	1.350000e+00	1.500000e+00	3.080702e-03	
738	1.360000e+00	1.500000e+00	3.090776e-03	
739	1.370000e+00	1.500000e+00	3.100736e-03	
740	1.380000e+00	1.500000e+00	3.110585e-03	
741	1.390000e+00	1.500000e+00	3.120330e-03	
742	1.400000e+00	1.500000e+00	3.129973e-03	
743	1.410000e+00	1.500000e+00	3.139518e-03	
744	1.420000e+00	1.500000e+00	3.148969e-03	
745	1.430000e+00	1.500000e+00	3.158329e-03	
746	1.440000e+00	1.500000e+00	3.167602e-03	
747	1.450000e+00	1.500000e+00	3.176791e-03	
748	1.460000e+00	1.500000e+00	3.185898e-03	
749	1.470000e+00	1.500000e+00	3.194927e-03	
750	1.480000e+00	1.500000e+00	3.203880e-03	

Index   v-sweep         v(g)            vs#branch       
--------------------------------------------------------------------------------
751	1.490000e+00	1.500000e+00	3.212760e-03	
752	1.500000e+00	1.500000e+00	3.221569e-03	
753	1.510000e+00	1.500000e+00	3.230310e-03	
754	1.520000e+00	1.500000e+00	3.238983e-03	
755	1.530000e+00	1.500000e+00	3.247593e-03	
756	1.540000e+00	1.500000e+00	3.256140e-03	
757	1.550000e+00	1.500000e+00	3.264627e-03	
758	1.560000e+00	1.500000e+00	3.273054e-03	
759	1.570000e+00	1.500000e+00	3.281425e-03	
760	1.580000e+00	1.500000e+00	3.289740e-03	
761	1.590000e+00	1.500000e+00	3.298002e-03	
762	1.600000e+00	1.500000e+00	3.306210e-03	
763	1.610000e+00	1.500000e+00	3.314368e-03	
764	1.620000e+00	1.500000e+00	3.322476e-03	
765	1.630000e+00	1.500000e+00	3.330535e-03	
766	1.640000e+00	1.500000e+00	3.338547e-03	
767	1.650000e+00	1.500000e+00	3.346512e-03	
768	1.660000e+00	1.500000e+00	3.354432e-03	
769	1.670000e+00	1.500000e+00	3.362308e-03	
770	1.680000e+00	1.500000e+00	3.370141e-03	
771	1.690000e+00	1.500000e+00	3.377931e-03	
772	1.700000e+00	1.500000e+00	3.385679e-03	
773	1.710000e+00	1.500000e+00	3.393387e-03	
774	1.720000e+00	1.500000e+00	3.401055e-03	
775	1.730000e+00	1.500000e+00	3.408683e-03	
776	1.740000e+00	1.500000e+00	3.416273e-03	
777	1.750000e+00	1.500000e+00	3.423824e-03	
778	1.760000e+00	1.500000e+00	3.431339e-03	
779	1.770000e+00	1.500000e+00	3.438816e-03	
780	1.780000e+00	1.500000e+00	3.446257e-03	
781	1.790000e+00	1.500000e+00	3.453663e-03	
782	1.800000e+00	1.500000e+00	3.461033e-03	
783	1.810000e+00	1.500000e+00	3.468368e-03	
784	1.820000e+00	1.500000e+00	3.475669e-03	
785	1.830000e+00	1.500000e+00	3.482936e-03	
786	1.840000e+00	1.500000e+00	3.490169e-03	
787	1.850000e+00	1.500000e+00	3.497370e-03	
788	1.860000e+00	1.500000e+00	3.504538e-03	
789	1.870000e+00	1.500000e+00	3.511674e-03	
790	1.880000e+00	1.500000e+00	3.518778e-03	
791	1.890000e+00	1.500000e+00	3.525850e-03	
792	1.900000e+00	1.500000e+00	3.532892e-03	
793	1.910000e+00	1.500000e+00	3.539903e-03	
794	1.920000e+00	1.500000e+00	3.546883e-03	
795	1.930000e+00	1.500000e+00	3.553834e-03	
796	1.940000e+00	1.500000e+00	3.560755e-03	
797	1.950000e+00	1.500000e+00	3.567647e-03	
798	1.960000e+00	1.500000e+00	3.574510e-03	
799	1.970000e+00	1.500000e+00	3.581345e-03	
800	1.980000e+00	1.500000e+00	3.588152e-03	
801	1.990000e+00	1.500000e+00	3.594931e-03	
802	2.000000e+00	1.500000e+00	3.601682e-03	
803	2.010000e+00	1.500000e+00	3.608407e-03	
804	2.020000e+00	1.500000e+00	3.615105e-03	
805	2.030000e+00	1.500000e+00	3.621776e-03	
806	2.040000e+00	1.500000e+00	3.628422e-03	
807	2.050000e+00	1.500000e+00	3.635042e-03	
808	2.060000e+00	1.500000e+00	3.641637e-03	

Index   v-sweep         v(g)            vs#branch       
--------------------------------------------------------------------------------
809	2.070000e+00	1.500000e+00	3.648207e-03	
810	2.080000e+00	1.500000e+00	3.654752e-03	
811	2.090000e+00	1.500000e+00	3.661272e-03	
812	2.100000e+00	1.500000e+00	3.667769e-03	
813	2.110000e+00	1.500000e+00	3.674243e-03	
814	2.120000e+00	1.500000e+00	3.680692e-03	
815	2.130000e+00	1.500000e+00	3.687119e-03	
816	2.140000e+00	1.500000e+00	3.693523e-03	
817	2.150000e+00	1.500000e+00	3.699905e-03	
818	2.160000e+00	1.500000e+00	3.706265e-03	
819	2.170000e+00	1.500000e+00	3.712602e-03	
820	2.180000e+00	1.500000e+00	3.718919e-03	
821	2.190000e+00	1.500000e+00	3.725214e-03	
822	2.200000e+00	1.500000e+00	3.731488e-03	
823	2.210000e+00	1.500000e+00	3.737741e-03	
824	2.220000e+00	1.500000e+00	3.743974e-03	
825	2.230000e+00	1.500000e+00	3.750187e-03	
826	2.240000e+00	1.500000e+00	3.756380e-03	
827	2.250000e+00	1.500000e+00	3.762553e-03	
828	2.260000e+00	1.500000e+00	3.768707e-03	
829	2.270000e+00	1.500000e+00	3.774842e-03	
830	2.280000e+00	1.500000e+00	3.780959e-03	
831	2.290000e+00	1.500000e+00	3.787056e-03	
832	2.300000e+00	1.500000e+00	3.793136e-03	
833	2.310000e+00	1.500000e+00	3.799197e-03	
834	2.320000e+00	1.500000e+00	3.805241e-03	
835	2.330000e+00	1.500000e+00	3.811267e-03	
836	2.340000e+00	1.500000e+00	3.817275e-03	
837	2.350000e+00	1.500000e+00	3.823267e-03	
838	2.360000e+00	1.500000e+00	3.829241e-03	
839	2.370000e+00	1.500000e+00	3.835199e-03	
840	2.380000e+00	1.500000e+00	3.841140e-03	
841	2.390000e+00	1.500000e+00	3.847066e-03	
842	2.400000e+00	1.500000e+00	3.852975e-03	
843	2.410000e+00	1.500000e+00	3.858868e-03	
844	2.420000e+00	1.500000e+00	3.864746e-03	
845	2.430000e+00	1.500000e+00	3.870608e-03	
846	2.440000e+00	1.500000e+00	3.876456e-03	
847	2.450000e+00	1.500000e+00	3.882288e-03	
848	2.460000e+00	1.500000e+00	3.888105e-03	
849	2.470000e+00	1.500000e+00	3.893908e-03	
850	2.480000e+00	1.500000e+00	3.899697e-03	
851	2.490000e+00	1.500000e+00	3.905471e-03	
852	2.500000e+00	1.500000e+00	3.911231e-03	
853	2.510000e+00	1.500000e+00	3.916977e-03	
854	2.520000e+00	1.500000e+00	3.922710e-03	
855	2.530000e+00	1.500000e+00	3.928429e-03	
856	2.540000e+00	1.500000e+00	3.934135e-03	
857	2.550000e+00	1.500000e+00	3.939828e-03	
858	2.560000e+00	1.500000e+00	3.945508e-03	
859	2.570000e+00	1.500000e+00	3.951175e-03	
860	2.580000e+00	1.500000e+00	3.956829e-03	
861	2.590000e+00	1.500000e+00	3.962471e-03	
862	2.600000e+00	1.500000e+00	3.968101e-03	
863	2.610000e+00	1.500000e+00	3.973719e-03	
864	2.620000e+00	1.500000e+00	3.979324e-03	
865	2.630000e+00	1.500000e+00	3.984918e-03	
866	2.640000e+00	1.500000e+00	3.990500e-03	

Index   v-sweep         v(g)            vs#branch       
--------------------------------------------------------------------------------
867	2.650000e+00	1.500000e+00	3.996071e-03	
868	2.660000e+00	1.500000e+00	4.001631e-03	
869	2.670000e+00	1.500000e+00	4.007179e-03	
870	2.680000e+00	1.500000e+00	4.012716e-03	
871	2.690000e+00	1.500000e+00	4.018242e-03	
872	2.700000e+00	1.500000e+00	4.023758e-03	
873	2.710000e+00	1.500000e+00	4.029263e-03	
874	2.720000e+00	1.500000e+00	4.034757e-03	
875	2.730000e+00	1.500000e+00	4.040241e-03	
876	2.740000e+00	1.500000e+00	4.045715e-03	
877	2.750000e+00	1.500000e+00	4.051179e-03	
878	2.760000e+00	1.500000e+00	4.056633e-03	
879	2.770000e+00	1.500000e+00	4.062077e-03	
880	2.780000e+00	1.500000e+00	4.067512e-03	
881	2.790000e+00	1.500000e+00	4.072937e-03	
882	2.800000e+00	1.500000e+00	4.078353e-03	
883	2.810000e+00	1.500000e+00	4.083759e-03	
884	2.820000e+00	1.500000e+00	4.089157e-03	
885	2.830000e+00	1.500000e+00	4.094545e-03	
886	2.840000e+00	1.500000e+00	4.099924e-03	
887	2.850000e+00	1.500000e+00	4.105295e-03	
888	2.860000e+00	1.500000e+00	4.110657e-03	
889	2.870000e+00	1.500000e+00	4.116011e-03	
890	2.880000e+00	1.500000e+00	4.121356e-03	
891	2.890000e+00	1.500000e+00	4.126693e-03	
892	2.900000e+00	1.500000e+00	4.132022e-03	
893	2.910000e+00	1.500000e+00	4.137342e-03	
894	2.920000e+00	1.500000e+00	4.142655e-03	
895	2.930000e+00	1.500000e+00	4.147960e-03	
896	2.940000e+00	1.500000e+00	4.153257e-03	
897	2.950000e+00	1.500000e+00	4.158547e-03	
898	2.960000e+00	1.500000e+00	4.163829e-03	
899	2.970000e+00	1.500000e+00	4.169103e-03	
900	2.980000e+00	1.500000e+00	4.174371e-03	
901	2.990000e+00	1.500000e+00	4.179631e-03	
902	3.000000e+00	1.500000e+00	4.184884e-03	
903	0.000000e+00	2.000000e+00	-1.093850e-40	
904	1.000000e-02	2.000000e+00	8.811600e-05	
905	2.000000e-02	2.000000e+00	1.750348e-04	
906	3.000000e-02	2.000000e+00	2.607739e-04	
907	4.000000e-02	2.000000e+00	3.453498e-04	
908	5.000000e-02	2.000000e+00	4.287780e-04	
909	6.000000e-02	2.000000e+00	5.110728e-04	
910	7.000000e-02	2.000000e+00	5.922480e-04	
911	8.000000e-02	2.000000e+00	6.723166e-04	
912	9.000000e-02	2.000000e+00	7.512910e-04	
913	1.000000e-01	2.000000e+00	8.291832e-04	
914	1.100000e-01	2.000000e+00	9.065381e-04	
915	1.200000e-01	2.000000e+00	9.822948e-04	
916	1.300000e-01	2.000000e+00	1.057003e-03	
917	1.400000e-01	2.000000e+00	1.130674e-03	
918	1.500000e-01	2.000000e+00	1.203318e-03	
919	1.600000e-01	2.000000e+00	1.274945e-03	
920	1.700000e-01	2.000000e+00	1.345567e-03	
921	1.800000e-01	2.000000e+00	1.415193e-03	
922	1.900000e-01	2.000000e+00	1.483833e-03	
923	2.000000e-01	2.000000e+00	1.551497e-03	
924	2.100000e-01	2.000000e+00	1.618195e-03	

Index   v-sweep         v(g)            vs#branch       
--------------------------------------------------------------------------------
925	2.200000e-01	2.000000e+00	1.683938e-03	
926	2.300000e-01	2.000000e+00	1.748733e-03	
927	2.400000e-01	2.000000e+00	1.812591e-03	
928	2.500000e-01	2.000000e+00	1.875521e-03	
929	2.600000e-01	2.000000e+00	1.937533e-03	
930	2.700000e-01	2.000000e+00	1.998634e-03	
931	2.800000e-01	2.000000e+00	2.058834e-03	
932	2.900000e-01	2.000000e+00	2.118142e-03	
933	3.000000e-01	2.000000e+00	2.176565e-03	
934	3.100000e-01	2.000000e+00	2.234113e-03	
935	3.200000e-01	2.000000e+00	2.290793e-03	
936	3.300000e-01	2.000000e+00	2.346613e-03	
937	3.400000e-01	2.000000e+00	2.401582e-03	
938	3.500000e-01	2.000000e+00	2.455706e-03	
939	3.600000e-01	2.000000e+00	2.508994e-03	
940	3.700000e-01	2.000000e+00	2.561452e-03	
941	3.800000e-01	2.000000e+00	2.613088e-03	
942	3.900000e-01	2.000000e+00	2.663910e-03	
943	4.000000e-01	2.000000e+00	2.713922e-03	
944	4.100000e-01	2.000000e+00	2.763134e-03	
945	4.200000e-01	2.000000e+00	2.811551e-03	
946	4.300000e-01	2.000000e+00	2.859179e-03	
947	4.400000e-01	2.000000e+00	2.906025e-03	
948	4.500000e-01	2.000000e+00	2.952096e-03	
949	4.600000e-01	2.000000e+00	2.997397e-03	
950	4.700000e-01	2.000000e+00	3.041934e-03	
951	4.800000e-01	2.000000e+00	3.085713e-03	
952	4.900000e-01	2.000000e+00	3.128741e-03	
953	5.000000e-01	2.000000e+00	3.171021e-03	
954	5.100000e-01	2.000000e+00	3.212561e-03	
955	5.200000e-01	2.000000e+00	3.253364e-03	
956	5.300000e-01	2.000000e+00	3.293438e-03	
957	5.400000e-01	2.000000e+00	3.332786e-03	
958	5.500000e-01	2.000000e+00	3.371413e-03	
959	5.600000e-01	2.000000e+00	3.409326e-03	
960	5.700000e-01	2.000000e+00	3.446528e-03	
961	5.800000e-01	2.000000e+00	3.483024e-03	
962	5.900000e-01	2.000000e+00	3.518819e-03	
963	6.000000e-01	2.000000e+00	3.553917e-03	
964	6.100000e-01	2.000000e+00	3.588323e-03	
965	6.200000e-01	2.000000e+00	3.622041e-03	
966	6.300000e-01	2.000000e+00	3.655076e-03	
967	6.400000e-01	2.000000e+00	3.687431e-03	
968	6.500000e-01	2.000000e+00	3.719110e-03	
969	6.600000e-01	2.000000e+00	3.750118e-03	
970	6.700000e-01	2.000000e+00	3.780458e-03	
971	6.800000e-01	2.000000e+00	3.810135e-03	
972	6.900000e-01	2.000000e+00	3.839151e-03	
973	7.000000e-01	2.000000e+00	3.867510e-03	
974	7.100000e-01	2.000000e+00	3.895216e-03	
975	7.200000e-01	2.000000e+00	3.922273e-03	
976	7.300000e-01	2.000000e+00	3.948683e-03	
977	7.400000e-01	2.000000e+00	3.974450e-03	
978	7.500000e-01	2.000000e+00	3.999578e-03	
979	7.600000e-01	2.000000e+00	4.024070e-03	
980	7.700000e-01	2.000000e+00	4.047929e-03	
981	7.800000e-01	2.000000e+00	4.071160e-03	
982	7.900000e-01	2.000000e+00	4.093766e-03	

Index   v-sweep         v(g)            vs#branch       
--------------------------------------------------------------------------------
983	8.000000e-01	2.000000e+00	4.115751e-03	
984	8.100000e-01	2.000000e+00	4.137120e-03	
985	8.200000e-01	2.000000e+00	4.157878e-03	
986	8.300000e-01	2.000000e+00	4.178032e-03	
987	8.400000e-01	2.000000e+00	4.197587e-03	
988	8.500000e-01	2.000000e+00	4.216553e-03	
989	8.600000e-01	2.000000e+00	4.234938e-03	
990	8.700000e-01	2.000000e+00	4.252754e-03	
991	8.800000e-01	2.000000e+00	4.270012e-03	
992	8.900000e-01	2.000000e+00	4.286729e-03	
993	9.000000e-01	2.000000e+00	4.302921e-03	
994	9.100000e-01	2.000000e+00	4.318608e-03	
995	9.200000e-01	2.000000e+00	4.333812e-03	
996	9.300000e-01	2.000000e+00	4.348559e-03	
997	9.400000e-01	2.000000e+00	4.362878e-03	
998	9.500000e-01	2.000000e+00	4.376799e-03	
999	9.600000e-01	2.000000e+00	4.390357e-03	
1000	9.700000e-01	2.000000e+00	4.403590e-03	
1001	9.800000e-01	2.000000e+00	4.416537e-03	
1002	9.900000e-01	2.000000e+00	4.429241e-03	
1003	1.000000e+00	2.000000e+00	4.441749e-03	
1004	1.010000e+00	2.000000e+00	4.454108e-03	
1005	1.020000e+00	2.000000e+00	4.466367e-03	
1006	1.030000e+00	2.000000e+00	4.478580e-03	
1007	1.040000e+00	2.000000e+00	4.490798e-03	
1008	1.050000e+00	2.000000e+00	4.503075e-03	
1009	1.060000e+00	2.000000e+00	4.515463e-03	
1010	1.070000e+00	2.000000e+00	4.528014e-03	
1011	1.080000e+00	2.000000e+00	4.540774e-03	
1012	1.090000e+00	2.000000e+00	4.553789e-03	
1013	1.100000e+00	2.000000e+00	4.567096e-03	
1014	1.110000e+00	2.000000e+00	4.580726e-03	
1015	1.120000e+00	2.000000e+00	4.594702e-03	
1016	1.130000e+00	2.000000e+00	4.609036e-03	
1017	1.140000e+00	2.000000e+00	4.623731e-03	
1018	1.150000e+00	2.000000e+00	4.638777e-03	
1019	1.160000e+00	2.000000e+00	4.654157e-03	
1020	1.170000e+00	2.000000e+00	4.669840e-03	
1021	1.180000e+00	2.000000e+00	4.685791e-03	
1022	1.190000e+00	2.000000e+00	4.701967e-03	
1023	1.200000e+00	2.000000e+00	4.718374e-03	
1024	1.210000e+00	2.000000e+00	4.734997e-03	
1025	1.220000e+00	2.000000e+00	4.751717e-03	
1026	1.230000e+00	2.000000e+00	4.768469e-03	
1027	1.240000e+00	2.000000e+00	4.785198e-03	
1028	1.250000e+00	2.000000e+00	4.801855e-03	
1029	1.260000e+00	2.000000e+00	4.818398e-03	
1030	1.270000e+00	2.000000e+00	4.834796e-03	
1031	1.280000e+00	2.000000e+00	4.851022e-03	
1032	1.290000e+00	2.000000e+00	4.867056e-03	
1033	1.300000e+00	2.000000e+00	4.882882e-03	
1034	1.310000e+00	2.000000e+00	4.898492e-03	
1035	1.320000e+00	2.000000e+00	4.913878e-03	
1036	1.330000e+00	2.000000e+00	4.929037e-03	
1037	1.340000e+00	2.000000e+00	4.943969e-03	
1038	1.350000e+00	2.000000e+00	4.958676e-03	
1039	1.360000e+00	2.000000e+00	4.973161e-03	
1040	1.370000e+00	2.000000e+00	4.987428e-03	

Index   v-sweep         v(g)            vs#branch       
--------------------------------------------------------------------------------
1041	1.380000e+00	2.000000e+00	5.001483e-03	
1042	1.390000e+00	2.000000e+00	5.015332e-03	
1043	1.400000e+00	2.000000e+00	5.028981e-03	
1044	1.410000e+00	2.000000e+00	5.042436e-03	
1045	1.420000e+00	2.000000e+00	5.055705e-03	
1046	1.430000e+00	2.000000e+00	5.068794e-03	
1047	1.440000e+00	2.000000e+00	5.081710e-03	
1048	1.450000e+00	2.000000e+00	5.094459e-03	
1049	1.460000e+00	2.000000e+00	5.107047e-03	
1050	1.470000e+00	2.000000e+00	5.119481e-03	
1051	1.480000e+00	2.000000e+00	5.131767e-03	
1052	1.490000e+00	2.000000e+00	5.143910e-03	
1053	1.500000e+00	2.000000e+00	5.155915e-03	
1054	1.510000e+00	2.000000e+00	5.167788e-03	
1055	1.520000e+00	2.000000e+00	5.179534e-03	
1056	1.530000e+00	2.000000e+00	5.191157e-03	
1057	1.540000e+00	2.000000e+00	5.202662e-03	
1058	1.550000e+00	2.000000e+00	5.214053e-03	
1059	1.560000e+00	2.000000e+00	5.225334e-03	
1060	1.570000e+00	2.000000e+00	5.236509e-03	
1061	1.580000e+00	2.000000e+00	5.247581e-03	
1062	1.590000e+00	2.000000e+00	5.258555e-03	
1063	1.600000e+00	2.000000e+00	5.269433e-03	
1064	1.610000e+00	2.000000e+00	5.280219e-03	
1065	1.620000e+00	2.000000e+00	5.290915e-03	
1066	1.630000e+00	2.000000e+00	5.301524e-03	
1067	1.640000e+00	2.000000e+00	5.312050e-03	
1068	1.650000e+00	2.000000e+00	5.322494e-03	
1069	1.660000e+00	2.000000e+00	5.332859e-03	
1070	1.670000e+00	2.000000e+00	5.343148e-03	
1071	1.680000e+00	2.000000e+00	5.353362e-03	
1072	1.690000e+00	2.000000e+00	5.363504e-03	
1073	1.700000e+00	2.000000e+00	5.373576e-03	
1074	1.710000e+00	2.000000e+00	5.383579e-03	
1075	1.720000e+00	2.000000e+00	5.393515e-03	
1076	1.730000e+00	2.000000e+00	5.403387e-03	
1077	1.740000e+00	2.000000e+00	5.413195e-03	
1078	1.750000e+00	2.000000e+00	5.422942e-03	
1079	1.760000e+00	2.000000e+00	5.432628e-03	
1080	1.770000e+00	2.000000e+00	5.442255e-03	
1081	1.780000e+00	2.000000e+00	5.451824e-03	
1082	1.790000e+00	2.000000e+00	5.461337e-03	
1083	1.800000e+00	2.000000e+00	5.470794e-03	
1084	1.810000e+00	2.000000e+00	5.480197e-03	
1085	1.820000e+00	2.000000e+00	5.489547e-03	
1086	1.830000e+00	2.000000e+00	5.498844e-03	
1087	1.840000e+00	2.000000e+00	5.508089e-03	
1088	1.850000e+00	2.000000e+00	5.517284e-03	
1089	1.860000e+00	2.000000e+00	5.526430e-03	
1090	1.870000e+00	2.000000e+00	5.535526e-03	
1091	1.880000e+00	2.000000e+00	5.544574e-03	
1092	1.890000e+00	2.000000e+00	5.553574e-03	
1093	1.900000e+00	2.000000e+00	5.562528e-03	
1094	1.910000e+00	2.000000e+00	5.571436e-03	
1095	1.920000e+00	2.000000e+00	5.580298e-03	
1096	1.930000e+00	2.000000e+00	5.589115e-03	
1097	1.940000e+00	2.000000e+00	5.597888e-03	
1098	1.950000e+00	2.000000e+00	5.606618e-03	

Index   v-sweep         v(g)            vs#branch       
--------------------------------------------------------------------------------
1099	1.960000e+00	2.000000e+00	5.615305e-03	
1100	1.970000e+00	2.000000e+00	5.623949e-03	
1101	1.980000e+00	2.000000e+00	5.632552e-03	
1102	1.990000e+00	2.000000e+00	5.641113e-03	
1103	2.000000e+00	2.000000e+00	5.649634e-03	
1104	2.010000e+00	2.000000e+00	5.658114e-03	
1105	2.020000e+00	2.000000e+00	5.666556e-03	
1106	2.030000e+00	2.000000e+00	5.674958e-03	
1107	2.040000e+00	2.000000e+00	5.683322e-03	
1108	2.050000e+00	2.000000e+00	5.691648e-03	
1109	2.060000e+00	2.000000e+00	5.699937e-03	
1110	2.070000e+00	2.000000e+00	5.708189e-03	
1111	2.080000e+00	2.000000e+00	5.716405e-03	
1112	2.090000e+00	2.000000e+00	5.724585e-03	
1113	2.100000e+00	2.000000e+00	5.732730e-03	
1114	2.110000e+00	2.000000e+00	5.740841e-03	
1115	2.120000e+00	2.000000e+00	5.748917e-03	
1116	2.130000e+00	2.000000e+00	5.756960e-03	
1117	2.140000e+00	2.000000e+00	5.764969e-03	
1118	2.150000e+00	2.000000e+00	5.772946e-03	
1119	2.160000e+00	2.000000e+00	5.780890e-03	
1120	2.170000e+00	2.000000e+00	5.788803e-03	
1121	2.180000e+00	2.000000e+00	5.796685e-03	
1122	2.190000e+00	2.000000e+00	5.804535e-03	
1123	2.200000e+00	2.000000e+00	5.812356e-03	
1124	2.210000e+00	2.000000e+00	5.820146e-03	
1125	2.220000e+00	2.000000e+00	5.827907e-03	
1126	2.230000e+00	2.000000e+00	5.835639e-03	
1127	2.240000e+00	2.000000e+00	5.843342e-03	
1128	2.250000e+00	2.000000e+00	5.851018e-03	
1129	2.260000e+00	2.000000e+00	5.858665e-03	
1130	2.270000e+00	2.000000e+00	5.866285e-03	
1131	2.280000e+00	2.000000e+00	5.873878e-03	
1132	2.290000e+00	2.000000e+00	5.881445e-03	
1133	2.300000e+00	2.000000e+00	5.888985e-03	
1134	2.310000e+00	2.000000e+00	5.896500e-03	
1135	2.320000e+00	2.000000e+00	5.903989e-03	
1136	2.330000e+00	2.000000e+00	5.911453e-03	
1137	2.340000e+00	2.000000e+00	5.918893e-03	
1138	2.350000e+00	2.000000e+00	5.926308e-03	
1139	2.360000e+00	2.000000e+00	5.933699e-03	
1140	2.370000e+00	2.000000e+00	5.941067e-03	
1141	2.380000e+00	2.000000e+00	5.948411e-03	
1142	2.390000e+00	2.000000e+00	5.955733e-03	
1143	2.400000e+00	2.000000e+00	5.963031e-03	
1144	2.410000e+00	2.000000e+00	5.970308e-03	
1145	2.420000e+00	2.000000e+00	5.977562e-03	
1146	2.430000e+00	2.000000e+00	5.984795e-03	
1147	2.440000e+00	2.000000e+00	5.992007e-03	
1148	2.450000e+00	2.000000e+00	5.999197e-03	
1149	2.460000e+00	2.000000e+00	6.006367e-03	
1150	2.470000e+00	2.000000e+00	6.013516e-03	
1151	2.480000e+00	2.000000e+00	6.020645e-03	
1152	2.490000e+00	2.000000e+00	6.027754e-03	
1153	2.500000e+00	2.000000e+00	6.034844e-03	
1154	2.510000e+00	2.000000e+00	6.041914e-03	
1155	2.520000e+00	2.000000e+00	6.048966e-03	
1156	2.530000e+00	2.000000e+00	6.055998e-03	

Index   v-sweep         v(g)            vs#branch       
--------------------------------------------------------------------------------
1157	2.540000e+00	2.000000e+00	6.063012e-03	
1158	2.550000e+00	2.000000e+00	6.070008e-03	
1159	2.560000e+00	2.000000e+00	6.076986e-03	
1160	2.570000e+00	2.000000e+00	6.083946e-03	
1161	2.580000e+00	2.000000e+00	6.090889e-03	
1162	2.590000e+00	2.000000e+00	6.097814e-03	
1163	2.600000e+00	2.000000e+00	6.104723e-03	
1164	2.610000e+00	2.000000e+00	6.111614e-03	
1165	2.620000e+00	2.000000e+00	6.118489e-03	
1166	2.630000e+00	2.000000e+00	6.125348e-03	
1167	2.640000e+00	2.000000e+00	6.132191e-03	
1168	2.650000e+00	2.000000e+00	6.139018e-03	
1169	2.660000e+00	2.000000e+00	6.145830e-03	
1170	2.670000e+00	2.000000e+00	6.152626e-03	
1171	2.680000e+00	2.000000e+00	6.159407e-03	
1172	2.690000e+00	2.000000e+00	6.166173e-03	
1173	2.700000e+00	2.000000e+00	6.172924e-03	
1174	2.710000e+00	2.000000e+00	6.179661e-03	
1175	2.720000e+00	2.000000e+00	6.186383e-03	
1176	2.730000e+00	2.000000e+00	6.193091e-03	
1177	2.740000e+00	2.000000e+00	6.199786e-03	
1178	2.750000e+00	2.000000e+00	6.206466e-03	
1179	2.760000e+00	2.000000e+00	6.213133e-03	
1180	2.770000e+00	2.000000e+00	6.219787e-03	
1181	2.780000e+00	2.000000e+00	6.226428e-03	
1182	2.790000e+00	2.000000e+00	6.233056e-03	
1183	2.800000e+00	2.000000e+00	6.239670e-03	
1184	2.810000e+00	2.000000e+00	6.246273e-03	
1185	2.820000e+00	2.000000e+00	6.252863e-03	
1186	2.830000e+00	2.000000e+00	6.259440e-03	
1187	2.840000e+00	2.000000e+00	6.266006e-03	
1188	2.850000e+00	2.000000e+00	6.272560e-03	
1189	2.860000e+00	2.000000e+00	6.279102e-03	
1190	2.870000e+00	2.000000e+00	6.285632e-03	
1191	2.880000e+00	2.000000e+00	6.292151e-03	
1192	2.890000e+00	2.000000e+00	6.298659e-03	
1193	2.900000e+00	2.000000e+00	6.305156e-03	
1194	2.910000e+00	2.000000e+00	6.311642e-03	
1195	2.920000e+00	2.000000e+00	6.318117e-03	
1196	2.930000e+00	2.000000e+00	6.324582e-03	
1197	2.940000e+00	2.000000e+00	6.331036e-03	
1198	2.950000e+00	2.000000e+00	6.337480e-03	
1199	2.960000e+00	2.000000e+00	6.343913e-03	
1200	2.970000e+00	2.000000e+00	6.350337e-03	
1201	2.980000e+00	2.000000e+00	6.356751e-03	
1202	2.990000e+00	2.000000e+00	6.363155e-03	
1203	3.000000e+00	2.000000e+00	6.369550e-03	
1204	0.000000e+00	2.500000e+00	3.009119e-36	
1205	1.000000e-02	2.500000e+00	1.026370e-04	
1206	2.000000e-02	2.500000e+00	2.041497e-04	
1207	3.000000e-02	2.500000e+00	3.045539e-04	
1208	4.000000e-02	2.500000e+00	4.038641e-04	
1209	5.000000e-02	2.500000e+00	5.020939e-04	
1210	6.000000e-02	2.500000e+00	5.992562e-04	
1211	7.000000e-02	2.500000e+00	6.953628e-04	
1212	8.000000e-02	2.500000e+00	7.904251e-04	
1213	9.000000e-02	2.500000e+00	8.844539e-04	
1214	1.000000e-01	2.500000e+00	9.774598e-04	

Index   v-sweep         v(g)            vs#branch       
--------------------------------------------------------------------------------
1215	1.100000e-01	2.500000e+00	1.069957e-03	
1216	1.200000e-01	2.500000e+00	1.160942e-03	
1217	1.300000e-01	2.500000e+00	1.250933e-03	
1218	1.400000e-01	2.500000e+00	1.339940e-03	
1219	1.500000e-01	2.500000e+00	1.427972e-03	
1220	1.600000e-01	2.500000e+00	1.515038e-03	
1221	1.700000e-01	2.500000e+00	1.601148e-03	
1222	1.800000e-01	2.500000e+00	1.686309e-03	
1223	1.900000e-01	2.500000e+00	1.770531e-03	
1224	2.000000e-01	2.500000e+00	1.853822e-03	
1225	2.100000e-01	2.500000e+00	1.936192e-03	
1226	2.200000e-01	2.500000e+00	2.017649e-03	
1227	2.300000e-01	2.500000e+00	2.098200e-03	
1228	2.400000e-01	2.500000e+00	2.177854e-03	
1229	2.500000e-01	2.500000e+00	2.256620e-03	
1230	2.600000e-01	2.500000e+00	2.334505e-03	
1231	2.700000e-01	2.500000e+00	2.411518e-03	
1232	2.800000e-01	2.500000e+00	2.487665e-03	
1233	2.900000e-01	2.500000e+00	2.562955e-03	
1234	3.000000e-01	2.500000e+00	2.637395e-03	
1235	3.100000e-01	2.500000e+00	2.710992e-03	
1236	3.200000e-01	2.500000e+00	2.783753e-03	
1237	3.300000e-01	2.500000e+00	2.855686e-03	
1238	3.400000e-01	2.500000e+00	2.926797e-03	
1239	3.500000e-01	2.500000e+00	2.997093e-03	
1240	3.600000e-01	2.500000e+00	3.066581e-03	
1241	3.700000e-01	2.500000e+00	3.135267e-03	
1242	3.800000e-01	2.500000e+00	3.203158e-03	
1243	3.900000e-01	2.500000e+00	3.270259e-03	
1244	4.000000e-01	2.500000e+00	3.336576e-03	
1245	4.100000e-01	2.500000e+00	3.402116e-03	
1246	4.200000e-01	2.500000e+00	3.466885e-03	
1247	4.300000e-01	2.500000e+00	3.530888e-03	
1248	4.400000e-01	2.500000e+00	3.594131e-03	
1249	4.500000e-01	2.500000e+00	3.656619e-03	
1250	4.600000e-01	2.500000e+00	3.718357e-03	
1251	4.700000e-01	2.500000e+00	3.779351e-03	
1252	4.800000e-01	2.500000e+00	3.839606e-03	
1253	4.900000e-01	2.500000e+00	3.899127e-03	
1254	5.000000e-01	2.500000e+00	3.957919e-03	
1255	5.100000e-01	2.500000e+00	4.015987e-03	
1256	5.200000e-01	2.500000e+00	4.073335e-03	
1257	5.300000e-01	2.500000e+00	4.129968e-03	
1258	5.400000e-01	2.500000e+00	4.185890e-03	
1259	5.500000e-01	2.500000e+00	4.241107e-03	
1260	5.600000e-01	2.500000e+00	4.295622e-03	
1261	5.700000e-01	2.500000e+00	4.349440e-03	
1262	5.800000e-01	2.500000e+00	4.402564e-03	
1263	5.900000e-01	2.500000e+00	4.455000e-03	
1264	6.000000e-01	2.500000e+00	4.506750e-03	
1265	6.100000e-01	2.500000e+00	4.557820e-03	
1266	6.200000e-01	2.500000e+00	4.608212e-03	
1267	6.300000e-01	2.500000e+00	4.657931e-03	
1268	6.400000e-01	2.500000e+00	4.706980e-03	
1269	6.500000e-01	2.500000e+00	4.755363e-03	
1270	6.600000e-01	2.500000e+00	4.803084e-03	
1271	6.700000e-01	2.500000e+00	4.850146e-03	
1272	6.800000e-01	2.500000e+00	4.896552e-03	

Index   v-sweep         v(g)            vs#branch       
--------------------------------------------------------------------------------
1273	6.900000e-01	2.500000e+00	4.942306e-03	
1274	7.000000e-01	2.500000e+00	4.987411e-03	
1275	7.100000e-01	2.500000e+00	5.031870e-03	
1276	7.200000e-01	2.500000e+00	5.075687e-03	
1277	7.300000e-01	2.500000e+00	5.118864e-03	
1278	7.400000e-01	2.500000e+00	5.161405e-03	
1279	7.500000e-01	2.500000e+00	5.203312e-03	
1280	7.600000e-01	2.500000e+00	5.244588e-03	
1281	7.700000e-01	2.500000e+00	5.285236e-03	
1282	7.800000e-01	2.500000e+00	5.325259e-03	
1283	7.900000e-01	2.500000e+00	5.364660e-03	
1284	8.000000e-01	2.500000e+00	5.403440e-03	
1285	8.100000e-01	2.500000e+00	5.441602e-03	
1286	8.200000e-01	2.500000e+00	5.479149e-03	
1287	8.300000e-01	2.500000e+00	5.516083e-03	
1288	8.400000e-01	2.500000e+00	5.552407e-03	
1289	8.500000e-01	2.500000e+00	5.588121e-03	
1290	8.600000e-01	2.500000e+00	5.623229e-03	
1291	8.700000e-01	2.500000e+00	5.657733e-03	
1292	8.800000e-01	2.500000e+00	5.691633e-03	
1293	8.900000e-01	2.500000e+00	5.724933e-03	
1294	9.000000e-01	2.500000e+00	5.757634e-03	
1295	9.100000e-01	2.500000e+00	5.789738e-03	
1296	9.200000e-01	2.500000e+00	5.821247e-03	
1297	9.300000e-01	2.500000e+00	5.852161e-03	
1298	9.400000e-01	2.500000e+00	5.882485e-03	
1299	9.500000e-01	2.500000e+00	5.912218e-03	
1300	9.600000e-01	2.500000e+00	5.941364e-03	
1301	9.700000e-01	2.500000e+00	5.969925e-03	
1302	9.800000e-01	2.500000e+00	5.997903e-03	
1303	9.900000e-01	2.500000e+00	6.025303e-03	
1304	1.000000e+00	2.500000e+00	6.052127e-03	
1305	1.010000e+00	2.500000e+00	6.078380e-03	
1306	1.020000e+00	2.500000e+00	6.104068e-03	
1307	1.030000e+00	2.500000e+00	6.129197e-03	
1308	1.040000e+00	2.500000e+00	6.153776e-03	
1309	1.050000e+00	2.500000e+00	6.177814e-03	
1310	1.060000e+00	2.500000e+00	6.201322e-03	
1311	1.070000e+00	2.500000e+00	6.224315e-03	
1312	1.080000e+00	2.500000e+00	6.246810e-03	
1313	1.090000e+00	2.500000e+00	6.268826e-03	
1314	1.100000e+00	2.500000e+00	6.290386e-03	
1315	1.110000e+00	2.500000e+00	6.311518e-03	
1316	1.120000e+00	2.500000e+00	6.332252e-03	
1317	1.130000e+00	2.500000e+00	6.352624e-03	
1318	1.140000e+00	2.500000e+00	6.372674e-03	
1319	1.150000e+00	2.500000e+00	6.392444e-03	
1320	1.160000e+00	2.500000e+00	6.411982e-03	
1321	1.170000e+00	2.500000e+00	6.431339e-03	
1322	1.180000e+00	2.500000e+00	6.450568e-03	
1323	1.190000e+00	2.500000e+00	6.469722e-03	
1324	1.200000e+00	2.500000e+00	6.488856e-03	
1325	1.210000e+00	2.500000e+00	6.508019e-03	
1326	1.220000e+00	2.500000e+00	6.527259e-03	
1327	1.230000e+00	2.500000e+00	6.546618e-03	
1328	1.240000e+00	2.500000e+00	6.566127e-03	
1329	1.250000e+00	2.500000e+00	6.585809e-03	
1330	1.260000e+00	2.500000e+00	6.605678e-03	

Index   v-sweep         v(g)            vs#branch       
--------------------------------------------------------------------------------
1331	1.270000e+00	2.500000e+00	6.625733e-03	
1332	1.280000e+00	2.500000e+00	6.645964e-03	
1333	1.290000e+00	2.500000e+00	6.666366e-03	
1334	1.300000e+00	2.500000e+00	6.687001e-03	
1335	1.310000e+00	2.500000e+00	6.707756e-03	
1336	1.320000e+00	2.500000e+00	6.728571e-03	
1337	1.330000e+00	2.500000e+00	6.749387e-03	
1338	1.340000e+00	2.500000e+00	6.770149e-03	
1339	1.350000e+00	2.500000e+00	6.790805e-03	
1340	1.360000e+00	2.500000e+00	6.811309e-03	
1341	1.370000e+00	2.500000e+00	6.831622e-03	
1342	1.380000e+00	2.500000e+00	6.851711e-03	
1343	1.390000e+00	2.500000e+00	6.871549e-03	
1344	1.400000e+00	2.500000e+00	6.891117e-03	
1345	1.410000e+00	2.500000e+00	6.910399e-03	
1346	1.420000e+00	2.500000e+00	6.929386e-03	
1347	1.430000e+00	2.500000e+00	6.948072e-03	
1348	1.440000e+00	2.500000e+00	6.966454e-03	
1349	1.450000e+00	2.500000e+00	6.984534e-03	
1350	1.460000e+00	2.500000e+00	7.002316e-03	
1351	1.470000e+00	2.500000e+00	7.019803e-03	
1352	1.480000e+00	2.500000e+00	7.037003e-03	
1353	1.490000e+00	2.500000e+00	7.053923e-03	
1354	1.500000e+00	2.500000e+00	7.070571e-03	
1355	1.510000e+00	2.500000e+00	7.086957e-03	
1356	1.520000e+00	2.500000e+00	7.103088e-03	
1357	1.530000e+00	2.500000e+00	7.118974e-03	
1358	1.540000e+00	2.500000e+00	7.134625e-03	
1359	1.550000e+00	2.500000e+00	7.150048e-03	
1360	1.560000e+00	2.500000e+00	7.165252e-03	
1361	1.570000e+00	2.500000e+00	7.180247e-03	
1362	1.580000e+00	2.500000e+00	7.195040e-03	
1363	1.590000e+00	2.500000e+00	7.209638e-03	
1364	1.600000e+00	2.500000e+00	7.224051e-03	
1365	1.610000e+00	2.500000e+00	7.238284e-03	
1366	1.620000e+00	2.500000e+00	7.252345e-03	
1367	1.630000e+00	2.500000e+00	7.266240e-03	
1368	1.640000e+00	2.500000e+00	7.279976e-03	
1369	1.650000e+00	2.500000e+00	7.293559e-03	
1370	1.660000e+00	2.500000e+00	7.306994e-03	
1371	1.670000e+00	2.500000e+00	7.320286e-03	
1372	1.680000e+00	2.500000e+00	7.333442e-03	
1373	1.690000e+00	2.500000e+00	7.346466e-03	
1374	1.700000e+00	2.500000e+00	7.359362e-03	
1375	1.710000e+00	2.500000e+00	7.372135e-03	
1376	1.720000e+00	2.500000e+00	7.384790e-03	
1377	1.730000e+00	2.500000e+00	7.397329e-03	
1378	1.740000e+00	2.500000e+00	7.409758e-03	
1379	1.750000e+00	2.500000e+00	7.422080e-03	
1380	1.760000e+00	2.500000e+00	7.434297e-03	
1381	1.770000e+00	2.500000e+00	7.446414e-03	
1382	1.780000e+00	2.500000e+00	7.458434e-03	
1383	1.790000e+00	2.500000e+00	7.470359e-03	
1384	1.800000e+00	2.500000e+00	7.482192e-03	
1385	1.810000e+00	2.500000e+00	7.493937e-03	
1386	1.820000e+00	2.500000e+00	7.505594e-03	
1387	1.830000e+00	2.500000e+00	7.517167e-03	
1388	1.840000e+00	2.500000e+00	7.528658e-03	

Index   v-sweep         v(g)            vs#branch       
--------------------------------------------------------------------------------
1389	1.850000e+00	2.500000e+00	7.540070e-03	
1390	1.860000e+00	2.500000e+00	7.551403e-03	
1391	1.870000e+00	2.500000e+00	7.562660e-03	
1392	1.880000e+00	2.500000e+00	7.573843e-03	
1393	1.890000e+00	2.500000e+00	7.584953e-03	
1394	1.900000e+00	2.500000e+00	7.595992e-03	
1395	1.910000e+00	2.500000e+00	7.606961e-03	
1396	1.920000e+00	2.500000e+00	7.617862e-03	
1397	1.930000e+00	2.500000e+00	7.628697e-03	
1398	1.940000e+00	2.500000e+00	7.639466e-03	
1399	1.950000e+00	2.500000e+00	7.650170e-03	
1400	1.960000e+00	2.500000e+00	7.660811e-03	
1401	1.970000e+00	2.500000e+00	7.671390e-03	
1402	1.980000e+00	2.500000e+00	7.681909e-03	
1403	1.990000e+00	2.500000e+00	7.692367e-03	
1404	2.000000e+00	2.500000e+00	7.702766e-03	
1405	2.010000e+00	2.500000e+00	7.713108e-03	
1406	2.020000e+00	2.500000e+00	7.723392e-03	
1407	2.030000e+00	2.500000e+00	7.733620e-03	
1408	2.040000e+00	2.500000e+00	7.743793e-03	
1409	2.050000e+00	2.500000e+00	7.753912e-03	
1410	2.060000e+00	2.500000e+00	7.763977e-03	
1411	2.070000e+00	2.500000e+00	7.773990e-03	
1412	2.080000e+00	2.500000e+00	7.783951e-03	
1413	2.090000e+00	2.500000e+00	7.793861e-03	
1414	2.100000e+00	2.500000e+00	7.803721e-03	
1415	2.110000e+00	2.500000e+00	7.813532e-03	
1416	2.120000e+00	2.500000e+00	7.823294e-03	
1417	2.130000e+00	2.500000e+00	7.833009e-03	
1418	2.140000e+00	2.500000e+00	7.842677e-03	
1419	2.150000e+00	2.500000e+00	7.852298e-03	
1420	2.160000e+00	2.500000e+00	7.861874e-03	
1421	2.170000e+00	2.500000e+00	7.871405e-03	
1422	2.180000e+00	2.500000e+00	7.880893e-03	
1423	2.190000e+00	2.500000e+00	7.890337e-03	
1424	2.200000e+00	2.500000e+00	7.899739e-03	
1425	2.210000e+00	2.500000e+00	7.909098e-03	
1426	2.220000e+00	2.500000e+00	7.918417e-03	
1427	2.230000e+00	2.500000e+00	7.927695e-03	
1428	2.240000e+00	2.500000e+00	7.936933e-03	
1429	2.250000e+00	2.500000e+00	7.946132e-03	
1430	2.260000e+00	2.500000e+00	7.955292e-03	
1431	2.270000e+00	2.500000e+00	7.964415e-03	
1432	2.280000e+00	2.500000e+00	7.973500e-03	
1433	2.290000e+00	2.500000e+00	7.982548e-03	
1434	2.300000e+00	2.500000e+00	7.991560e-03	
1435	2.310000e+00	2.500000e+00	8.000537e-03	
1436	2.320000e+00	2.500000e+00	8.009479e-03	
1437	2.330000e+00	2.500000e+00	8.018386e-03	
1438	2.340000e+00	2.500000e+00	8.027260e-03	
1439	2.350000e+00	2.500000e+00	8.036100e-03	
1440	2.360000e+00	2.500000e+00	8.044907e-03	
1441	2.370000e+00	2.500000e+00	8.053682e-03	
1442	2.380000e+00	2.500000e+00	8.062426e-03	
1443	2.390000e+00	2.500000e+00	8.071138e-03	
1444	2.400000e+00	2.500000e+00	8.079819e-03	
1445	2.410000e+00	2.500000e+00	8.088470e-03	
1446	2.420000e+00	2.500000e+00	8.097092e-03	

Index   v-sweep         v(g)            vs#branch       
--------------------------------------------------------------------------------
1447	2.430000e+00	2.500000e+00	8.105684e-03	
1448	2.440000e+00	2.500000e+00	8.114247e-03	
1449	2.450000e+00	2.500000e+00	8.122781e-03	
1450	2.460000e+00	2.500000e+00	8.131288e-03	
1451	2.470000e+00	2.500000e+00	8.139767e-03	
1452	2.480000e+00	2.500000e+00	8.148219e-03	
1453	2.490000e+00	2.500000e+00	8.156645e-03	
1454	2.500000e+00	2.500000e+00	8.165044e-03	
1455	2.510000e+00	2.500000e+00	8.173417e-03	
1456	2.520000e+00	2.500000e+00	8.181765e-03	
1457	2.530000e+00	2.500000e+00	8.190088e-03	
1458	2.540000e+00	2.500000e+00	8.198385e-03	
1459	2.550000e+00	2.500000e+00	8.206659e-03	
1460	2.560000e+00	2.500000e+00	8.214909e-03	
1461	2.570000e+00	2.500000e+00	8.223135e-03	
1462	2.580000e+00	2.500000e+00	8.231338e-03	
1463	2.590000e+00	2.500000e+00	8.239518e-03	
1464	2.600000e+00	2.500000e+00	8.247675e-03	
1465	2.610000e+00	2.500000e+00	8.255810e-03	
1466	2.620000e+00	2.500000e+00	8.263924e-03	
1467	2.630000e+00	2.500000e+00	8.272016e-03	
1468	2.640000e+00	2.500000e+00	8.280086e-03	
1469	2.650000e+00	2.500000e+00	8.288136e-03	
1470	2.660000e+00	2.500000e+00	8.296165e-03	
1471	2.670000e+00	2.500000e+00	8.304174e-03	
1472	2.680000e+00	2.500000e+00	8.312163e-03	
1473	2.690000e+00	2.500000e+00	8.320132e-03	
1474	2.700000e+00	2.500000e+00	8.328082e-03	
1475	2.710000e+00	2.500000e+00	8.336013e-03	
1476	2.720000e+00	2.500000e+00	8.343925e-03	
1477	2.730000e+00	2.500000e+00	8.351819e-03	
1478	2.740000e+00	2.500000e+00	8.359694e-03	
1479	2.750000e+00	2.500000e+00	8.367552e-03	
1480	2.760000e+00	2.500000e+00	8.375391e-03	
1481	2.770000e+00	2.500000e+00	8.383213e-03	
1482	2.780000e+00	2.500000e+00	8.391018e-03	
1483	2.790000e+00	2.500000e+00	8.398807e-03	
1484	2.800000e+00	2.500000e+00	8.406578e-03	
1485	2.810000e+00	2.500000e+00	8.414333e-03	
1486	2.820000e+00	2.500000e+00	8.422072e-03	
1487	2.830000e+00	2.500000e+00	8.429795e-03	
1488	2.840000e+00	2.500000e+00	8.437502e-03	
1489	2.850000e+00	2.500000e+00	8.445194e-03	
1490	2.860000e+00	2.500000e+00	8.452870e-03	
1491	2.870000e+00	2.500000e+00	8.460532e-03	
1492	2.880000e+00	2.500000e+00	8.468179e-03	
1493	2.890000e+00	2.500000e+00	8.475811e-03	
1494	2.900000e+00	2.500000e+00	8.483429e-03	
1495	2.910000e+00	2.500000e+00	8.491032e-03	
1496	2.920000e+00	2.500000e+00	8.498622e-03	
1497	2.930000e+00	2.500000e+00	8.506198e-03	
1498	2.940000e+00	2.500000e+00	8.513760e-03	
1499	2.950000e+00	2.500000e+00	8.521310e-03	
1500	2.960000e+00	2.500000e+00	8.528846e-03	
1501	2.970000e+00	2.500000e+00	8.536369e-03	
1502	2.980000e+00	2.500000e+00	8.543879e-03	
1503	2.990000e+00	2.500000e+00	8.551377e-03	
1504	3.000000e+00	2.500000e+00	8.558862e-03	

Index   v-sweep         v(g)            vs#branch       
--------------------------------------------------------------------------------
1505	0.000000e+00	3.000000e+00	-1.832939e-40	
1506	1.000000e-02	3.000000e+00	1.118014e-04	
1507	2.000000e-02	3.000000e+00	2.225797e-04	
1508	3.000000e-02	3.000000e+00	3.323487e-04	
1509	4.000000e-02	3.000000e+00	4.411212e-04	
1510	5.000000e-02	3.000000e+00	5.489088e-04	
1511	6.000000e-02	3.000000e+00	6.557227e-04	
1512	7.000000e-02	3.000000e+00	7.615731e-04	
1513	8.000000e-02	3.000000e+00	8.664696e-04	
1514	9.000000e-02	3.000000e+00	9.704215e-04	
1515	1.000000e-01	3.000000e+00	1.073438e-03	
1516	1.100000e-01	3.000000e+00	1.175989e-03	
1517	1.200000e-01	3.000000e+00	1.277155e-03	
1518	1.300000e-01	3.000000e+00	1.377409e-03	
1519	1.400000e-01	3.000000e+00	1.476761e-03	
1520	1.500000e-01	3.000000e+00	1.575218e-03	
1521	1.600000e-01	3.000000e+00	1.672788e-03	
1522	1.700000e-01	3.000000e+00	1.769477e-03	
1523	1.800000e-01	3.000000e+00	1.865295e-03	
1524	1.900000e-01	3.000000e+00	1.960248e-03	
1525	2.000000e-01	3.000000e+00	2.054343e-03	
1526	2.100000e-01	3.000000e+00	2.147589e-03	
1527	2.200000e-01	3.000000e+00	2.239991e-03	
1528	2.300000e-01	3.000000e+00	2.331559e-03	
1529	2.400000e-01	3.000000e+00	2.422297e-03	
1530	2.500000e-01	3.000000e+00	2.512214e-03	
1531	2.600000e-01	3.000000e+00	2.601316e-03	
1532	2.700000e-01	3.000000e+00	2.689610e-03	
1533	2.800000e-01	3.000000e+00	2.777103e-03	
1534	2.900000e-01	3.000000e+00	2.863800e-03	
1535	3.000000e-01	3.000000e+00	2.949709e-03	
1536	3.100000e-01	3.000000e+00	3.034836e-03	
1537	3.200000e-01	3.000000e+00	3.119186e-03	
1538	3.300000e-01	3.000000e+00	3.202766e-03	
1539	3.400000e-01	3.000000e+00	3.285582e-03	
1540	3.500000e-01	3.000000e+00	3.367639e-03	
1541	3.600000e-01	3.000000e+00	3.448942e-03	
1542	3.700000e-01	3.000000e+00	3.529499e-03	
1543	3.800000e-01	3.000000e+00	3.609313e-03	
1544	3.900000e-01	3.000000e+00	3.688391e-03	
1545	4.000000e-01	3.000000e+00	3.766736e-03	
1546	4.100000e-01	3.000000e+00	3.844356e-03	
1547	4.200000e-01	3.000000e+00	3.921253e-03	
1548	4.300000e-01	3.000000e+00	3.997434e-03	
1549	4.400000e-01	3.000000e+00	4.072903e-03	
1550	4.500000e-01	3.000000e+00	4.147664e-03	
1551	4.600000e-01	3.000000e+00	4.221722e-03	
1552	4.700000e-01	3.000000e+00	4.295082e-03	
1553	4.800000e-01	3.000000e+00	4.367748e-03	
1554	4.900000e-01	3.000000e+00	4.439724e-03	
1555	5.000000e-01	3.000000e+00	4.511015e-03	
1556	5.100000e-01	3.000000e+00	4.581624e-03	
1557	5.200000e-01	3.000000e+00	4.651555e-03	
1558	5.300000e-01	3.000000e+00	4.720813e-03	
1559	5.400000e-01	3.000000e+00	4.789401e-03	
1560	5.500000e-01	3.000000e+00	4.857323e-03	
1561	5.600000e-01	3.000000e+00	4.924582e-03	
1562	5.700000e-01	3.000000e+00	4.991183e-03	

Index   v-sweep         v(g)            vs#branch       
--------------------------------------------------------------------------------
1563	5.800000e-01	3.000000e+00	5.057129e-03	
1564	5.900000e-01	3.000000e+00	5.122423e-03	
1565	6.000000e-01	3.000000e+00	5.187068e-03	
1566	6.100000e-01	3.000000e+00	5.251069e-03	
1567	6.200000e-01	3.000000e+00	5.314428e-03	
1568	6.300000e-01	3.000000e+00	5.377149e-03	
1569	6.400000e-01	3.000000e+00	5.439235e-03	
1570	6.500000e-01	3.000000e+00	5.500688e-03	
1571	6.600000e-01	3.000000e+00	5.561512e-03	
1572	6.700000e-01	3.000000e+00	5.621710e-03	
1573	6.800000e-01	3.000000e+00	5.681285e-03	
1574	6.900000e-01	3.000000e+00	5.740240e-03	
1575	7.000000e-01	3.000000e+00	5.798577e-03	
1576	7.100000e-01	3.000000e+00	5.856299e-03	
1577	7.200000e-01	3.000000e+00	5.913409e-03	
1578	7.300000e-01	3.000000e+00	5.969910e-03	
1579	7.400000e-01	3.000000e+00	6.025805e-03	
1580	7.500000e-01	3.000000e+00	6.081095e-03	
1581	7.600000e-01	3.000000e+00	6.135784e-03	
1582	7.700000e-01	3.000000e+00	6.189873e-03	
1583	7.800000e-01	3.000000e+00	6.243366e-03	
1584	7.900000e-01	3.000000e+00	6.296265e-03	
1585	8.000000e-01	3.000000e+00	6.348572e-03	
1586	8.100000e-01	3.000000e+00	6.400289e-03	
1587	8.200000e-01	3.000000e+00	6.451419e-03	
1588	8.300000e-01	3.000000e+00	6.501964e-03	
1589	8.400000e-01	3.000000e+00	6.551926e-03	
1590	8.500000e-01	3.000000e+00	6.601307e-03	
1591	8.600000e-01	3.000000e+00	6.650110e-03	
1592	8.700000e-01	3.000000e+00	6.698336e-03	
1593	8.800000e-01	3.000000e+00	6.745988e-03	
1594	8.900000e-01	3.000000e+00	6.793067e-03	
1595	9.000000e-01	3.000000e+00	6.839575e-03	
1596	9.100000e-01	3.000000e+00	6.885515e-03	
1597	9.200000e-01	3.000000e+00	6.930887e-03	
1598	9.300000e-01	3.000000e+00	6.975695e-03	
1599	9.400000e-01	3.000000e+00	7.019939e-03	
1600	9.500000e-01	3.000000e+00	7.063622e-03	
1601	9.600000e-01	3.000000e+00	7.106745e-03	
1602	9.700000e-01	3.000000e+00	7.149310e-03	
1603	9.800000e-01	3.000000e+00	7.191319e-03	
1604	9.900000e-01	3.000000e+00	7.232772e-03	
1605	1.000000e+00	3.000000e+00	7.273673e-03	
1606	1.010000e+00	3.000000e+00	7.314022e-03	
1607	1.020000e+00	3.000000e+00	7.353821e-03	
1608	1.030000e+00	3.000000e+00	7.393072e-03	
1609	1.040000e+00	3.000000e+00	7.431777e-03	
1610	1.050000e+00	3.000000e+00	7.469938e-03	
1611	1.060000e+00	3.000000e+00	7.507556e-03	
1612	1.070000e+00	3.000000e+00	7.544635e-03	
1613	1.080000e+00	3.000000e+00	7.581176e-03	
1614	1.090000e+00	3.000000e+00	7.617182e-03	
1615	1.100000e+00	3.000000e+00	7.652658e-03	
1616	1.110000e+00	3.000000e+00	7.687606e-03	
1617	1.120000e+00	3.000000e+00	7.722032e-03	
1618	1.130000e+00	3.000000e+00	7.755940e-03	
1619	1.140000e+00	3.000000e+00	7.789337e-03	
1620	1.150000e+00	3.000000e+00	7.822231e-03	

Index   v-sweep         v(g)            vs#branch       
--------------------------------------------------------------------------------
1621	1.160000e+00	3.000000e+00	7.854630e-03	
1622	1.170000e+00	3.000000e+00	7.886544e-03	
1623	1.180000e+00	3.000000e+00	7.917987e-03	
1624	1.190000e+00	3.000000e+00	7.948971e-03	
1625	1.200000e+00	3.000000e+00	7.979514e-03	
1626	1.210000e+00	3.000000e+00	8.009636e-03	
1627	1.220000e+00	3.000000e+00	8.039357e-03	
1628	1.230000e+00	3.000000e+00	8.068703e-03	
1629	1.240000e+00	3.000000e+00	8.097703e-03	
1630	1.250000e+00	3.000000e+00	8.126387e-03	
1631	1.260000e+00	3.000000e+00	8.154791e-03	
1632	1.270000e+00	3.000000e+00	8.182952e-03	
1633	1.280000e+00	3.000000e+00	8.210910e-03	
1634	1.290000e+00	3.000000e+00	8.238706e-03	
1635	1.300000e+00	3.000000e+00	8.266382e-03	
1636	1.310000e+00	3.000000e+00	8.293981e-03	
1637	1.320000e+00	3.000000e+00	8.321541e-03	
1638	1.330000e+00	3.000000e+00	8.349098e-03	
1639	1.340000e+00	3.000000e+00	8.376683e-03	
1640	1.350000e+00	3.000000e+00	8.404317e-03	
1641	1.360000e+00	3.000000e+00	8.432015e-03	
1642	1.370000e+00	3.000000e+00	8.459778e-03	
1643	1.380000e+00	3.000000e+00	8.487660e-03	
1644	1.390000e+00	3.000000e+00	8.515642e-03	
1645	1.400000e+00	3.000000e+00	8.543664e-03	
1646	1.410000e+00	3.000000e+00	8.571675e-03	
1647	1.420000e+00	3.000000e+00	8.599622e-03	
1648	1.430000e+00	3.000000e+00	8.627444e-03	
1649	1.440000e+00	3.000000e+00	8.655084e-03	
1650	1.450000e+00	3.000000e+00	8.682485e-03	
1651	1.460000e+00	3.000000e+00	8.709594e-03	
1652	1.470000e+00	3.000000e+00	8.736364e-03	
1653	1.480000e+00	3.000000e+00	8.762756e-03	
1654	1.490000e+00	3.000000e+00	8.788736e-03	
1655	1.500000e+00	3.000000e+00	8.814279e-03	
1656	1.510000e+00	3.000000e+00	8.839365e-03	
1657	1.520000e+00	3.000000e+00	8.863983e-03	
1658	1.530000e+00	3.000000e+00	8.888125e-03	
1659	1.540000e+00	3.000000e+00	8.911791e-03	
1660	1.550000e+00	3.000000e+00	8.934981e-03	
1661	1.560000e+00	3.000000e+00	8.957703e-03	
1662	1.570000e+00	3.000000e+00	8.979966e-03	
1663	1.580000e+00	3.000000e+00	9.001779e-03	
1664	1.590000e+00	3.000000e+00	9.023156e-03	
1665	1.600000e+00	3.000000e+00	9.044110e-03	
1666	1.610000e+00	3.000000e+00	9.064655e-03	
1667	1.620000e+00	3.000000e+00	9.084806e-03	
1668	1.630000e+00	3.000000e+00	9.104578e-03	
1669	1.640000e+00	3.000000e+00	9.123987e-03	
1670	1.650000e+00	3.000000e+00	9.143046e-03	
1671	1.660000e+00	3.000000e+00	9.161770e-03	
1672	1.670000e+00	3.000000e+00	9.180174e-03	
1673	1.680000e+00	3.000000e+00	9.198270e-03	
1674	1.690000e+00	3.000000e+00	9.216072e-03	
1675	1.700000e+00	3.000000e+00	9.233593e-03	
1676	1.710000e+00	3.000000e+00	9.250844e-03	
1677	1.720000e+00	3.000000e+00	9.267837e-03	
1678	1.730000e+00	3.000000e+00	9.284583e-03	

Index   v-sweep         v(g)            vs#branch       
--------------------------------------------------------------------------------
1679	1.740000e+00	3.000000e+00	9.301092e-03	
1680	1.750000e+00	3.000000e+00	9.317375e-03	
1681	1.760000e+00	3.000000e+00	9.333440e-03	
1682	1.770000e+00	3.000000e+00	9.349296e-03	
1683	1.780000e+00	3.000000e+00	9.364953e-03	
1684	1.790000e+00	3.000000e+00	9.380418e-03	
1685	1.800000e+00	3.000000e+00	9.395699e-03	
1686	1.810000e+00	3.000000e+00	9.410803e-03	
1687	1.820000e+00	3.000000e+00	9.425737e-03	
1688	1.830000e+00	3.000000e+00	9.440507e-03	
1689	1.840000e+00	3.000000e+00	9.455120e-03	
1690	1.850000e+00	3.000000e+00	9.469581e-03	
1691	1.860000e+00	3.000000e+00	9.483896e-03	
1692	1.870000e+00	3.000000e+00	9.498070e-03	
1693	1.880000e+00	3.000000e+00	9.512109e-03	
1694	1.890000e+00	3.000000e+00	9.526016e-03	
1695	1.900000e+00	3.000000e+00	9.539796e-03	
1696	1.910000e+00	3.000000e+00	9.553454e-03	
1697	1.920000e+00	3.000000e+00	9.566992e-03	
1698	1.930000e+00	3.000000e+00	9.580416e-03	
1699	1.940000e+00	3.000000e+00	9.593728e-03	
1700	1.950000e+00	3.000000e+00	9.606932e-03	
1701	1.960000e+00	3.000000e+00	9.620030e-03	
1702	1.970000e+00	3.000000e+00	9.633026e-03	
1703	1.980000e+00	3.000000e+00	9.645923e-03	
1704	1.990000e+00	3.000000e+00	9.658723e-03	
1705	2.000000e+00	3.000000e+00	9.671428e-03	
1706	2.010000e+00	3.000000e+00	9.684041e-03	
1707	2.020000e+00	3.000000e+00	9.696565e-03	
1708	2.030000e+00	3.000000e+00	9.709000e-03	
1709	2.040000e+00	3.000000e+00	9.721350e-03	
1710	2.050000e+00	3.000000e+00	9.733615e-03	
1711	2.060000e+00	3.000000e+00	9.745799e-03	
1712	2.070000e+00	3.000000e+00	9.757903e-03	
1713	2.080000e+00	3.000000e+00	9.769927e-03	
1714	2.090000e+00	3.000000e+00	9.781875e-03	
1715	2.100000e+00	3.000000e+00	9.793748e-03	
1716	2.110000e+00	3.000000e+00	9.805546e-03	
1717	2.120000e+00	3.000000e+00	9.817272e-03	
1718	2.130000e+00	3.000000e+00	9.828927e-03	
1719	2.140000e+00	3.000000e+00	9.840513e-03	
1720	2.150000e+00	3.000000e+00	9.852030e-03	
1721	2.160000e+00	3.000000e+00	9.863480e-03	
1722	2.170000e+00	3.000000e+00	9.874865e-03	
1723	2.180000e+00	3.000000e+00	9.886185e-03	
1724	2.190000e+00	3.000000e+00	9.897443e-03	
1725	2.200000e+00	3.000000e+00	9.908638e-03	
1726	2.210000e+00	3.000000e+00	9.919773e-03	
1727	2.220000e+00	3.000000e+00	9.930847e-03	
1728	2.230000e+00	3.000000e+00	9.941864e-03	
1729	2.240000e+00	3.000000e+00	9.952823e-03	
1730	2.250000e+00	3.000000e+00	9.963726e-03	
1731	2.260000e+00	3.000000e+00	9.974574e-03	
1732	2.270000e+00	3.000000e+00	9.985367e-03	
1733	2.280000e+00	3.000000e+00	9.996107e-03	
1734	2.290000e+00	3.000000e+00	1.000680e-02	
1735	2.300000e+00	3.000000e+00	1.001743e-02	
1736	2.310000e+00	3.000000e+00	1.002802e-02	

Index   v-sweep         v(g)            vs#branch       
--------------------------------------------------------------------------------
1737	2.320000e+00	3.000000e+00	1.003856e-02	
1738	2.330000e+00	3.000000e+00	1.004905e-02	
1739	2.340000e+00	3.000000e+00	1.005949e-02	
1740	2.350000e+00	3.000000e+00	1.006988e-02	
1741	2.360000e+00	3.000000e+00	1.008023e-02	
1742	2.370000e+00	3.000000e+00	1.009053e-02	
1743	2.380000e+00	3.000000e+00	1.010079e-02	
1744	2.390000e+00	3.000000e+00	1.011101e-02	
1745	2.400000e+00	3.000000e+00	1.012119e-02	
1746	2.410000e+00	3.000000e+00	1.013132e-02	
1747	2.420000e+00	3.000000e+00	1.014141e-02	
1748	2.430000e+00	3.000000e+00	1.015146e-02	
1749	2.440000e+00	3.000000e+00	1.016147e-02	
1750	2.450000e+00	3.000000e+00	1.017144e-02	
1751	2.460000e+00	3.000000e+00	1.018138e-02	
1752	2.470000e+00	3.000000e+00	1.019127e-02	
1753	2.480000e+00	3.000000e+00	1.020113e-02	
1754	2.490000e+00	3.000000e+00	1.021096e-02	
1755	2.500000e+00	3.000000e+00	1.022075e-02	
1756	2.510000e+00	3.000000e+00	1.023050e-02	
1757	2.520000e+00	3.000000e+00	1.024022e-02	
1758	2.530000e+00	3.000000e+00	1.024990e-02	
1759	2.540000e+00	3.000000e+00	1.025955e-02	
1760	2.550000e+00	3.000000e+00	1.026917e-02	
1761	2.560000e+00	3.000000e+00	1.027876e-02	
1762	2.570000e+00	3.000000e+00	1.028831e-02	
1763	2.580000e+00	3.000000e+00	1.029784e-02	
1764	2.590000e+00	3.000000e+00	1.030733e-02	
1765	2.600000e+00	3.000000e+00	1.031679e-02	
1766	2.610000e+00	3.000000e+00	1.032623e-02	
1767	2.620000e+00	3.000000e+00	1.033563e-02	
1768	2.630000e+00	3.000000e+00	1.034501e-02	
1769	2.640000e+00	3.000000e+00	1.035435e-02	
1770	2.650000e+00	3.000000e+00	1.036367e-02	
1771	2.660000e+00	3.000000e+00	1.037297e-02	
1772	2.670000e+00	3.000000e+00	1.038223e-02	
1773	2.680000e+00	3.000000e+00	1.039147e-02	
1774	2.690000e+00	3.000000e+00	1.040069e-02	
1775	2.700000e+00	3.000000e+00	1.040988e-02	
1776	2.710000e+00	3.000000e+00	1.041904e-02	
1777	2.720000e+00	3.000000e+00	1.042818e-02	
1778	2.730000e+00	3.000000e+00	1.043729e-02	
1779	2.740000e+00	3.000000e+00	1.044638e-02	
1780	2.750000e+00	3.000000e+00	1.045545e-02	
1781	2.760000e+00	3.000000e+00	1.046449e-02	
1782	2.770000e+00	3.000000e+00	1.047352e-02	
1783	2.780000e+00	3.000000e+00	1.048252e-02	
1784	2.790000e+00	3.000000e+00	1.049149e-02	
1785	2.800000e+00	3.000000e+00	1.050045e-02	
1786	2.810000e+00	3.000000e+00	1.050938e-02	
1787	2.820000e+00	3.000000e+00	1.051829e-02	
1788	2.830000e+00	3.000000e+00	1.052719e-02	
1789	2.840000e+00	3.000000e+00	1.053606e-02	
1790	2.850000e+00	3.000000e+00	1.054491e-02	
1791	2.860000e+00	3.000000e+00	1.055374e-02	
1792	2.870000e+00	3.000000e+00	1.056256e-02	
1793	2.880000e+00	3.000000e+00	1.057135e-02	
1794	2.890000e+00	3.000000e+00	1.058012e-02	

Index   v-sweep         v(g)            vs#branch       
--------------------------------------------------------------------------------
1795	2.900000e+00	3.000000e+00	1.058888e-02	
1796	2.910000e+00	3.000000e+00	1.059762e-02	
1797	2.920000e+00	3.000000e+00	1.060634e-02	
1798	2.930000e+00	3.000000e+00	1.061504e-02	
1799	2.940000e+00	3.000000e+00	1.062372e-02	
1800	2.950000e+00	3.000000e+00	1.063239e-02	
1801	2.960000e+00	3.000000e+00	1.064104e-02	
1802	2.970000e+00	3.000000e+00	1.064968e-02	
1803	2.980000e+00	3.000000e+00	1.065829e-02	
1804	2.990000e+00	3.000000e+00	1.066690e-02	
1805	3.000000e+00	3.000000e+00	1.067548e-02	




