 Reference value :  6.50000e-01
No. of Data Rows : 1359

Circuit: *model = BSIMSOI (PD)

Doing analysis at TEMP = 300.150000 and TNOM = 300.150000
Warning: Pd = 0 is less than W.
Warning: Ps = 0 is less than W.
                             *model = BSIMSOI (PD)
--------------------------------------------------------------------------------
Index   v-sweep         vs#branch       
--------------------------------------------------------------------------------
0	0.000000e+00	8.433234e-11	
1	1.000000e-02	1.173853e-10	
2	2.000000e-02	1.632588e-10	
3	3.000000e-02	2.268841e-10	
4	4.000000e-02	3.150653e-10	
5	5.000000e-02	4.371752e-10	
6	6.000000e-02	6.061032e-10	
7	7.000000e-02	8.395378e-10	
8	8.000000e-02	1.161696e-09	
9	9.000000e-02	1.605642e-09	
10	1.000000e-01	2.216377e-09	
11	1.100000e-01	3.054930e-09	
12	1.200000e-01	4.203719e-09	
13	1.300000e-01	5.773527e-09	
14	1.400000e-01	7.912466e-09	
15	1.500000e-01	1.081736e-08	
16	1.600000e-01	1.474798e-08	
17	1.700000e-01	2.004465e-08	
18	1.800000e-01	2.714951e-08	
19	1.900000e-01	3.663184e-08	
20	2.000000e-01	4.921768e-08	
21	2.100000e-01	6.582364e-08	
22	2.200000e-01	8.759512e-08	
23	2.300000e-01	1.159487e-07	
24	2.400000e-01	1.526188e-07	
25	2.500000e-01	1.997099e-07	
26	2.600000e-01	2.597536e-07	
27	2.700000e-01	3.357750e-07	
28	2.800000e-01	4.313687e-07	
29	2.900000e-01	5.507868e-07	
30	3.000000e-01	6.990425e-07	
31	3.100000e-01	8.820264e-07	
32	3.200000e-01	1.106633e-06	
33	3.300000e-01	1.380887e-06	
34	3.400000e-01	1.714056e-06	
35	3.500000e-01	2.116720e-06	
36	3.600000e-01	2.600778e-06	
37	3.700000e-01	3.179341e-06	
38	3.800000e-01	3.866500e-06	
39	3.900000e-01	4.676920e-06	
40	4.000000e-01	5.625275e-06	
41	4.100000e-01	6.725549e-06	
42	4.200000e-01	7.990251e-06	
43	4.300000e-01	9.429650e-06	
44	4.400000e-01	1.105112e-05	
45	4.500000e-01	1.285872e-05	
46	4.600000e-01	1.485294e-05	
47	4.700000e-01	1.703086e-05	
48	4.800000e-01	1.938642e-05	
49	4.900000e-01	2.191092e-05	
50	5.000000e-01	2.459361e-05	
51	5.100000e-01	2.742233e-05	
52	5.200000e-01	3.038407e-05	
53	5.300000e-01	3.346549e-05	
54	5.400000e-01	3.665341e-05	

Index   v-sweep         vs#branch       
--------------------------------------------------------------------------------
55	5.500000e-01	3.993505e-05	
56	5.600000e-01	4.325947e-05	
57	5.700000e-01	4.669870e-05	
58	5.800000e-01	5.019764e-05	
59	5.900000e-01	5.374699e-05	
60	6.000000e-01	5.733843e-05	
61	6.100000e-01	6.096457e-05	
62	6.200000e-01	6.461890e-05	
63	6.300000e-01	6.829571e-05	
64	6.400000e-01	7.199002e-05	
65	6.500000e-01	7.569748e-05	
66	6.600000e-01	7.941432e-05	
67	6.700000e-01	8.313730e-05	
68	6.800000e-01	8.686359e-05	
69	6.900000e-01	9.059074e-05	
70	7.000000e-01	9.431666e-05	
71	7.100000e-01	9.803951e-05	
72	7.200000e-01	1.017577e-04	
73	7.300000e-01	1.054700e-04	
74	7.400000e-01	1.091750e-04	
75	7.500000e-01	1.128718e-04	
76	7.600000e-01	1.165595e-04	
77	7.700000e-01	1.202374e-04	
78	7.800000e-01	1.239046e-04	
79	7.900000e-01	1.275607e-04	
80	8.000000e-01	1.312051e-04	
81	8.100000e-01	1.348374e-04	
82	8.200000e-01	1.384571e-04	
83	8.300000e-01	1.420638e-04	
84	8.400000e-01	1.456573e-04	
85	8.500000e-01	1.492373e-04	
86	8.600000e-01	1.528034e-04	
87	8.700000e-01	1.563555e-04	
88	8.800000e-01	1.598933e-04	
89	8.900000e-01	1.634167e-04	
90	9.000000e-01	1.669255e-04	
91	9.100000e-01	1.704194e-04	
92	9.200000e-01	1.738984e-04	
93	9.300000e-01	1.773623e-04	
94	9.400000e-01	1.808111e-04	
95	9.500000e-01	1.842445e-04	
96	9.600000e-01	1.876625e-04	
97	9.700000e-01	1.910649e-04	
98	9.800000e-01	1.944518e-04	
99	9.900000e-01	1.978229e-04	
100	1.000000e+00	2.011783e-04	
101	1.010000e+00	2.045178e-04	
102	1.020000e+00	2.078415e-04	
103	1.030000e+00	2.111491e-04	
104	1.040000e+00	2.144407e-04	
105	1.050000e+00	2.177162e-04	
106	1.060000e+00	2.209755e-04	
107	1.070000e+00	2.242186e-04	
108	1.080000e+00	2.274455e-04	
109	1.090000e+00	2.306562e-04	
110	1.100000e+00	2.338505e-04	
111	1.110000e+00	2.370284e-04	
112	1.120000e+00	2.401900e-04	

Index   v-sweep         vs#branch       
--------------------------------------------------------------------------------
113	1.130000e+00	2.433351e-04	
114	1.140000e+00	2.464638e-04	
115	1.150000e+00	2.495761e-04	
116	1.160000e+00	2.526718e-04	
117	1.170000e+00	2.557511e-04	
118	1.180000e+00	2.588138e-04	
119	1.190000e+00	2.618599e-04	
120	1.200000e+00	2.648896e-04	
121	1.210000e+00	2.679026e-04	
122	1.220000e+00	2.708991e-04	
123	1.230000e+00	2.738790e-04	
124	1.240000e+00	2.768423e-04	
125	1.250000e+00	2.797890e-04	
126	1.260000e+00	2.827191e-04	
127	1.270000e+00	2.856326e-04	
128	1.280000e+00	2.885296e-04	
129	1.290000e+00	2.914099e-04	
130	1.300000e+00	2.942737e-04	
131	1.310000e+00	2.971209e-04	
132	1.320000e+00	2.999515e-04	
133	1.330000e+00	3.027655e-04	
134	1.340000e+00	3.055630e-04	
135	1.350000e+00	3.083440e-04	
136	1.360000e+00	3.111084e-04	
137	1.370000e+00	3.138564e-04	
138	1.380000e+00	3.165878e-04	
139	1.390000e+00	3.193027e-04	
140	1.400000e+00	3.220012e-04	
141	1.410000e+00	3.246833e-04	
142	1.420000e+00	3.273489e-04	
143	1.430000e+00	3.299982e-04	
144	1.440000e+00	3.326310e-04	
145	1.450000e+00	3.352476e-04	
146	1.460000e+00	3.378478e-04	
147	1.470000e+00	3.404317e-04	
148	1.480000e+00	3.429993e-04	
149	1.490000e+00	3.455507e-04	
150	1.500000e+00	3.480858e-04	
151	0.000000e+00	3.189255e-11	
152	1.000000e-02	4.435540e-11	
153	2.000000e-02	6.163784e-11	
154	3.000000e-02	8.559318e-11	
155	4.000000e-02	1.187814e-10	
156	5.000000e-02	1.647354e-10	
157	6.000000e-02	2.283245e-10	
158	7.000000e-02	3.162525e-10	
159	8.000000e-02	4.377338e-10	
160	9.000000e-02	6.054119e-10	
161	1.000000e-01	8.366013e-10	
162	1.100000e-01	1.154958e-09	
163	1.200000e-01	1.592716e-09	
164	1.300000e-01	2.193662e-09	
165	1.400000e-01	3.017072e-09	
166	1.500000e-01	4.142860e-09	
167	1.600000e-01	5.678277e-09	
168	1.700000e-01	7.766511e-09	
169	1.800000e-01	1.059761e-08	
170	1.900000e-01	1.442217e-08	

Index   v-sweep         vs#branch       
--------------------------------------------------------------------------------
171	2.000000e-01	1.956821e-08	
172	2.100000e-01	2.646166e-08	
173	2.200000e-01	3.565081e-08	
174	2.300000e-01	4.783488e-08	
175	2.400000e-01	6.389687e-08	
176	2.500000e-01	8.494072e-08	
177	2.600000e-01	1.123326e-07	
178	2.700000e-01	1.477468e-07	
179	2.800000e-01	1.932161e-07	
180	2.900000e-01	2.511888e-07	
181	3.000000e-01	3.245919e-07	
182	3.100000e-01	4.169056e-07	
183	3.200000e-01	5.322484e-07	
184	3.300000e-01	6.754765e-07	
185	3.400000e-01	8.522962e-07	
186	3.500000e-01	1.069386e-06	
187	3.600000e-01	1.334520e-06	
188	3.700000e-01	1.656678e-06	
189	3.800000e-01	2.046121e-06	
190	3.900000e-01	2.514397e-06	
191	4.000000e-01	3.074263e-06	
192	4.100000e-01	3.739458e-06	
193	4.200000e-01	4.524337e-06	
194	4.300000e-01	5.443337e-06	
195	4.400000e-01	6.510303e-06	
196	4.500000e-01	7.737734e-06	
197	4.600000e-01	9.136030e-06	
198	4.700000e-01	1.071284e-05	
199	4.800000e-01	1.247258e-05	
200	4.900000e-01	1.441625e-05	
201	5.000000e-01	1.654142e-05	
202	5.100000e-01	1.884257e-05	
203	5.200000e-01	2.131151e-05	
204	5.300000e-01	2.393794e-05	
205	5.400000e-01	2.671009e-05	
206	5.500000e-01	2.961528e-05	
207	5.600000e-01	3.264041e-05	
208	5.700000e-01	3.577248e-05	
209	5.800000e-01	3.899883e-05	
210	5.900000e-01	4.226826e-05	
211	6.000000e-01	4.565345e-05	
212	6.100000e-01	4.909901e-05	
213	6.200000e-01	5.259558e-05	
214	6.300000e-01	5.613480e-05	
215	6.400000e-01	5.970922e-05	
216	6.500000e-01	6.331225e-05	
217	6.600000e-01	6.693812e-05	
218	6.700000e-01	7.058178e-05	
219	6.800000e-01	7.423883e-05	
220	6.900000e-01	7.790544e-05	
221	7.000000e-01	8.157831e-05	
222	7.100000e-01	8.525456e-05	
223	7.200000e-01	8.893171e-05	
224	7.300000e-01	9.260763e-05	
225	7.400000e-01	9.628046e-05	
226	7.500000e-01	9.994860e-05	
227	7.600000e-01	1.036107e-04	
228	7.700000e-01	1.072654e-04	

Index   v-sweep         vs#branch       
--------------------------------------------------------------------------------
229	7.800000e-01	1.109119e-04	
230	7.900000e-01	1.145491e-04	
231	8.000000e-01	1.181763e-04	
232	8.100000e-01	1.217928e-04	
233	8.200000e-01	1.253980e-04	
234	8.300000e-01	1.289914e-04	
235	8.400000e-01	1.325725e-04	
236	8.500000e-01	1.361408e-04	
237	8.600000e-01	1.396961e-04	
238	8.700000e-01	1.432379e-04	
239	8.800000e-01	1.467661e-04	
240	8.900000e-01	1.502803e-04	
241	9.000000e-01	1.537804e-04	
242	9.100000e-01	1.572660e-04	
243	9.200000e-01	1.607371e-04	
244	9.300000e-01	1.641934e-04	
245	9.400000e-01	1.676348e-04	
246	9.500000e-01	1.710611e-04	
247	9.600000e-01	1.744723e-04	
248	9.700000e-01	1.778682e-04	
249	9.800000e-01	1.812486e-04	
250	9.900000e-01	1.846136e-04	
251	1.000000e+00	1.879629e-04	
252	1.010000e+00	1.912966e-04	
253	1.020000e+00	1.946145e-04	
254	1.030000e+00	1.979165e-04	
255	1.040000e+00	2.012027e-04	
256	1.050000e+00	2.044729e-04	
257	1.060000e+00	2.077271e-04	
258	1.070000e+00	2.109652e-04	
259	1.080000e+00	2.141871e-04	
260	1.090000e+00	2.173929e-04	
261	1.100000e+00	2.205825e-04	
262	1.110000e+00	2.237558e-04	
263	1.120000e+00	2.269129e-04	
264	1.130000e+00	2.300536e-04	
265	1.140000e+00	2.331780e-04	
266	1.150000e+00	2.362860e-04	
267	1.160000e+00	2.393776e-04	
268	1.170000e+00	2.424528e-04	
269	1.180000e+00	2.455116e-04	
270	1.190000e+00	2.485539e-04	
271	1.200000e+00	2.515798e-04	
272	1.210000e+00	2.545891e-04	
273	1.220000e+00	2.575820e-04	
274	1.230000e+00	2.605584e-04	
275	1.240000e+00	2.635183e-04	
276	1.250000e+00	2.664617e-04	
277	1.260000e+00	2.693886e-04	
278	1.270000e+00	2.722990e-04	
279	1.280000e+00	2.751928e-04	
280	1.290000e+00	2.780702e-04	
281	1.300000e+00	2.809311e-04	
282	1.310000e+00	2.837755e-04	
283	1.320000e+00	2.866034e-04	
284	1.330000e+00	2.894148e-04	
285	1.340000e+00	2.922098e-04	
286	1.350000e+00	2.949883e-04	

Index   v-sweep         vs#branch       
--------------------------------------------------------------------------------
287	1.360000e+00	2.977504e-04	
288	1.370000e+00	3.004960e-04	
289	1.380000e+00	3.032253e-04	
290	1.390000e+00	3.059382e-04	
291	1.400000e+00	3.086347e-04	
292	1.410000e+00	3.113148e-04	
293	1.420000e+00	3.139787e-04	
294	1.430000e+00	3.166262e-04	
295	1.440000e+00	3.192574e-04	
296	1.450000e+00	3.218724e-04	
297	1.460000e+00	3.244712e-04	
298	1.470000e+00	3.270537e-04	
299	1.480000e+00	3.296201e-04	
300	1.490000e+00	3.321704e-04	
301	1.500000e+00	3.347045e-04	
302	0.000000e+00	1.721668e-11	
303	1.000000e-02	2.388772e-11	
304	2.000000e-02	3.312193e-11	
305	3.000000e-02	4.589976e-11	
306	4.000000e-02	6.357426e-11	
307	5.000000e-02	8.801134e-11	
308	6.000000e-02	1.217820e-10	
309	7.000000e-02	1.684254e-10	
310	8.000000e-02	2.328078e-10	
311	9.000000e-02	3.216122e-10	
312	1.000000e-01	4.440024e-10	
313	1.100000e-01	6.125230e-10	
314	1.200000e-01	8.443127e-10	
315	1.300000e-01	1.162735e-09	
316	1.400000e-01	1.599553e-09	
317	1.500000e-01	2.197827e-09	
318	1.600000e-01	3.015724e-09	
319	1.700000e-01	4.131521e-09	
320	1.800000e-01	5.650076e-09	
321	1.900000e-01	7.711158e-09	
322	2.000000e-01	1.050001e-08	
323	2.100000e-01	1.426057e-08	
324	2.200000e-01	1.931181e-08	
325	2.300000e-01	2.606762e-08	
326	2.400000e-01	3.506045e-08	
327	2.500000e-01	4.696916e-08	
328	2.600000e-01	6.265104e-08	
329	2.700000e-01	8.317815e-08	
330	2.800000e-01	1.098779e-07	
331	2.900000e-01	1.443779e-07	
332	3.000000e-01	1.886563e-07	
333	3.100000e-01	2.450966e-07	
334	3.200000e-01	3.165513e-07	
335	3.300000e-01	4.064134e-07	
336	3.400000e-01	5.187001e-07	
337	3.500000e-01	6.581490e-07	
338	3.600000e-01	8.303274e-07	
339	3.700000e-01	1.041750e-06	
340	3.800000e-01	1.300001e-06	
341	3.900000e-01	1.613841e-06	
342	4.000000e-01	1.993282e-06	
343	4.100000e-01	2.449604e-06	
344	4.200000e-01	2.995279e-06	

Index   v-sweep         vs#branch       
--------------------------------------------------------------------------------
345	4.300000e-01	3.643767e-06	
346	4.400000e-01	4.409168e-06	
347	4.500000e-01	5.305717e-06	
348	4.600000e-01	6.347133e-06	
349	4.700000e-01	7.545891e-06	
350	4.800000e-01	8.912481e-06	
351	4.900000e-01	1.045475e-05	
352	5.000000e-01	1.217743e-05	
353	5.100000e-01	1.408188e-05	
354	5.200000e-01	1.616612e-05	
355	5.300000e-01	1.842507e-05	
356	5.400000e-01	2.085096e-05	
357	5.500000e-01	2.343390e-05	
358	5.600000e-01	2.616247e-05	
359	5.700000e-01	2.902425e-05	
360	5.800000e-01	3.200641e-05	
361	5.900000e-01	3.509606e-05	
362	6.000000e-01	3.828069e-05	
363	6.100000e-01	4.150876e-05	
364	6.200000e-01	4.485374e-05	
365	6.300000e-01	4.825986e-05	
366	6.400000e-01	5.171774e-05	
367	6.500000e-01	5.521895e-05	
368	6.600000e-01	5.875598e-05	
369	6.700000e-01	6.232220e-05	
370	6.800000e-01	6.591175e-05	
371	6.900000e-01	6.951953e-05	
372	7.000000e-01	7.314107e-05	
373	7.100000e-01	7.677248e-05	
374	7.200000e-01	8.041041e-05	
375	7.300000e-01	8.405193e-05	
376	7.400000e-01	8.769452e-05	
377	7.500000e-01	9.133601e-05	
378	7.600000e-01	9.497450e-05	
379	7.700000e-01	9.860836e-05	
380	7.800000e-01	1.022362e-04	
381	7.900000e-01	1.058568e-04	
382	8.000000e-01	1.094690e-04	
383	8.100000e-01	1.130720e-04	
384	8.200000e-01	1.166650e-04	
385	8.300000e-01	1.202472e-04	
386	8.400000e-01	1.238181e-04	
387	8.500000e-01	1.273771e-04	
388	8.600000e-01	1.309237e-04	
389	8.700000e-01	1.344575e-04	
390	8.800000e-01	1.379783e-04	
391	8.900000e-01	1.414855e-04	
392	9.000000e-01	1.449790e-04	
393	9.100000e-01	1.484585e-04	
394	9.200000e-01	1.519237e-04	
395	9.300000e-01	1.553745e-04	
396	9.400000e-01	1.588107e-04	
397	9.500000e-01	1.622320e-04	
398	9.600000e-01	1.656384e-04	
399	9.700000e-01	1.690297e-04	
400	9.800000e-01	1.724057e-04	
401	9.900000e-01	1.757664e-04	
402	1.000000e+00	1.791117e-04	

Index   v-sweep         vs#branch       
--------------------------------------------------------------------------------
403	1.010000e+00	1.824414e-04	
404	1.020000e+00	1.857555e-04	
405	1.030000e+00	1.890539e-04	
406	1.040000e+00	1.923365e-04	
407	1.050000e+00	1.956032e-04	
408	1.060000e+00	1.988540e-04	
409	1.070000e+00	2.020888e-04	
410	1.080000e+00	2.053076e-04	
411	1.090000e+00	2.085103e-04	
412	1.100000e+00	2.116969e-04	
413	1.110000e+00	2.148673e-04	
414	1.120000e+00	2.180215e-04	
415	1.130000e+00	2.211594e-04	
416	1.140000e+00	2.242811e-04	
417	1.150000e+00	2.273865e-04	
418	1.160000e+00	2.304755e-04	
419	1.170000e+00	2.335483e-04	
420	1.180000e+00	2.366046e-04	
421	1.190000e+00	2.396446e-04	
422	1.200000e+00	2.426681e-04	
423	1.210000e+00	2.456753e-04	
424	1.220000e+00	2.486660e-04	
425	1.230000e+00	2.516403e-04	
426	1.240000e+00	2.545982e-04	
427	1.250000e+00	2.575396e-04	
428	1.260000e+00	2.604646e-04	
429	1.270000e+00	2.633731e-04	
430	1.280000e+00	2.662652e-04	
431	1.290000e+00	2.691408e-04	
432	1.300000e+00	2.720000e-04	
433	1.310000e+00	2.748428e-04	
434	1.320000e+00	2.776692e-04	
435	1.330000e+00	2.804791e-04	
436	1.340000e+00	2.832727e-04	
437	1.350000e+00	2.860499e-04	
438	1.360000e+00	2.888106e-04	
439	1.370000e+00	2.915551e-04	
440	1.380000e+00	2.942832e-04	
441	1.390000e+00	2.969949e-04	
442	1.400000e+00	2.996904e-04	
443	1.410000e+00	3.023696e-04	
444	1.420000e+00	3.050325e-04	
445	1.430000e+00	3.076791e-04	
446	1.440000e+00	3.103096e-04	
447	1.450000e+00	3.129238e-04	
448	1.460000e+00	3.155219e-04	
449	1.470000e+00	3.181039e-04	
450	1.480000e+00	3.206697e-04	
451	1.490000e+00	3.232195e-04	
452	1.500000e+00	3.257532e-04	
453	0.000000e+00	1.394691e-11	
454	1.000000e-02	1.846015e-11	
455	2.000000e-02	2.662913e-11	
456	3.000000e-02	3.678196e-11	
457	4.000000e-02	5.079150e-11	
458	5.000000e-02	7.011527e-11	
459	6.000000e-02	9.675755e-11	
460	7.000000e-02	1.334720e-10	

Index   v-sweep         vs#branch       
--------------------------------------------------------------------------------
461	8.000000e-02	1.840385e-10	
462	9.000000e-02	2.536393e-10	
463	1.000000e-01	3.493704e-10	
464	1.100000e-01	4.809346e-10	
465	1.200000e-01	6.615750e-10	
466	1.300000e-01	9.093331e-10	
467	1.400000e-01	1.248731e-09	
468	1.500000e-01	1.713011e-09	
469	1.600000e-01	2.347109e-09	
470	1.700000e-01	3.211553e-09	
471	1.800000e-01	4.387562e-09	
472	1.900000e-01	5.983636e-09	
473	2.000000e-01	8.143998e-09	
474	2.100000e-01	1.105928e-08	
475	2.200000e-01	1.497988e-08	
476	2.300000e-01	2.023239e-08	
477	2.400000e-01	2.723958e-08	
478	2.500000e-01	3.654419e-08	
479	2.600000e-01	4.883680e-08	
480	2.700000e-01	6.498795e-08	
481	2.800000e-01	8.608465e-08	
482	2.900000e-01	1.134711e-07	
483	3.000000e-01	1.487940e-07	
484	3.100000e-01	1.940529e-07	
485	3.200000e-01	2.516566e-07	
486	3.300000e-01	3.244861e-07	
487	3.400000e-01	4.159679e-07	
488	3.500000e-01	5.301580e-07	
489	3.600000e-01	6.718379e-07	
490	3.700000e-01	8.466230e-07	
491	3.800000e-01	1.061080e-06	
492	3.900000e-01	1.322842e-06	
493	4.000000e-01	1.640714e-06	
494	4.100000e-01	2.024740e-06	
495	4.200000e-01	2.486206e-06	
496	4.300000e-01	3.037558e-06	
497	4.400000e-01	3.692188e-06	
498	4.500000e-01	4.464072e-06	
499	4.600000e-01	5.367267e-06	
500	4.700000e-01	6.415259e-06	
501	4.800000e-01	7.620246e-06	
502	4.900000e-01	8.992417e-06	
503	5.000000e-01	1.053931e-05	
504	5.100000e-01	1.226539e-05	
505	5.200000e-01	1.417177e-05	
506	5.300000e-01	1.625631e-05	
507	5.400000e-01	1.851382e-05	
508	5.500000e-01	2.093652e-05	
509	5.600000e-01	2.351455e-05	
510	5.700000e-01	2.623658e-05	
511	5.800000e-01	2.909032e-05	
512	5.900000e-01	3.206308e-05	
513	6.000000e-01	3.514216e-05	
514	6.100000e-01	3.831518e-05	
515	6.200000e-01	4.153118e-05	
516	6.300000e-01	4.486289e-05	
517	6.400000e-01	4.825513e-05	
518	6.500000e-01	5.169865e-05	

Index   v-sweep         vs#branch       
--------------------------------------------------------------------------------
519	6.600000e-01	5.518510e-05	
520	6.700000e-01	5.870706e-05	
521	6.800000e-01	6.225794e-05	
522	6.900000e-01	6.583196e-05	
523	7.000000e-01	6.942404e-05	
524	7.100000e-01	7.302973e-05	
525	7.200000e-01	7.664519e-05	
526	7.300000e-01	8.026707e-05	
527	7.400000e-01	8.389246e-05	
528	7.500000e-01	8.751885e-05	
529	7.600000e-01	9.114407e-05	
530	7.700000e-01	9.476624e-05	
531	7.800000e-01	9.838372e-05	
532	7.900000e-01	1.019951e-04	
533	8.000000e-01	1.055992e-04	
534	8.100000e-01	1.091949e-04	
535	8.200000e-01	1.127813e-04	
536	8.300000e-01	1.163577e-04	
537	8.400000e-01	1.199233e-04	
538	8.500000e-01	1.234774e-04	
539	8.600000e-01	1.270196e-04	
540	8.700000e-01	1.305495e-04	
541	8.800000e-01	1.340665e-04	
542	8.900000e-01	1.375703e-04	
543	9.000000e-01	1.410607e-04	
544	9.100000e-01	1.445372e-04	
545	9.200000e-01	1.479997e-04	
546	9.300000e-01	1.514480e-04	
547	9.400000e-01	1.548817e-04	
548	9.500000e-01	1.583008e-04	
549	9.600000e-01	1.617050e-04	
550	9.700000e-01	1.650943e-04	
551	9.800000e-01	1.684684e-04	
552	9.900000e-01	1.718273e-04	
553	1.000000e+00	1.751708e-04	
554	1.010000e+00	1.784989e-04	
555	1.020000e+00	1.818114e-04	
556	1.030000e+00	1.851082e-04	
557	1.040000e+00	1.883893e-04	
558	1.050000e+00	1.916546e-04	
559	1.060000e+00	1.949041e-04	
560	1.070000e+00	1.981376e-04	
561	1.080000e+00	2.013552e-04	
562	1.090000e+00	2.045567e-04	
563	1.100000e+00	2.077421e-04	
564	1.110000e+00	2.109114e-04	
565	1.120000e+00	2.140645e-04	
566	1.130000e+00	2.172014e-04	
567	1.140000e+00	2.203221e-04	
568	1.150000e+00	2.234265e-04	
569	1.160000e+00	2.265147e-04	
570	1.170000e+00	2.295865e-04	
571	1.180000e+00	2.326420e-04	
572	1.190000e+00	2.356811e-04	
573	1.200000e+00	2.387039e-04	
574	1.210000e+00	2.417103e-04	
575	1.220000e+00	2.447003e-04	
576	1.230000e+00	2.476739e-04	

Index   v-sweep         vs#branch       
--------------------------------------------------------------------------------
577	1.240000e+00	2.506311e-04	
578	1.250000e+00	2.535719e-04	
579	1.260000e+00	2.564963e-04	
580	1.270000e+00	2.594042e-04	
581	1.280000e+00	2.622958e-04	
582	1.290000e+00	2.651709e-04	
583	1.300000e+00	2.680296e-04	
584	1.310000e+00	2.708720e-04	
585	1.320000e+00	2.736979e-04	
586	1.330000e+00	2.765075e-04	
587	1.340000e+00	2.793006e-04	
588	1.350000e+00	2.820775e-04	
589	1.360000e+00	2.848379e-04	
590	1.370000e+00	2.875821e-04	
591	1.380000e+00	2.903099e-04	
592	1.390000e+00	2.930214e-04	
593	1.400000e+00	2.957167e-04	
594	1.410000e+00	2.983957e-04	
595	1.420000e+00	3.010585e-04	
596	1.430000e+00	3.037050e-04	
597	1.440000e+00	3.063354e-04	
598	1.450000e+00	3.089496e-04	
599	1.460000e+00	3.115476e-04	
600	1.470000e+00	3.141296e-04	
601	1.480000e+00	3.166954e-04	
602	1.490000e+00	3.192452e-04	
603	1.500000e+00	3.217790e-04	
604	0.000000e+00	1.754769e-11	
605	1.000000e-02	2.311481e-11	
606	2.000000e-02	3.313622e-11	
607	3.000000e-02	4.555909e-11	
608	4.000000e-02	6.264591e-11	
609	5.000000e-02	8.613817e-11	
610	6.000000e-02	1.184225e-10	
611	7.000000e-02	1.627667e-10	
612	8.000000e-02	2.236405e-10	
613	9.000000e-02	3.071507e-10	
614	1.000000e-01	4.216291e-10	
615	1.100000e-01	5.784260e-10	
616	1.200000e-01	7.929764e-10	
617	1.300000e-01	1.086227e-09	
618	1.400000e-01	1.486537e-09	
619	1.500000e-01	2.032200e-09	
620	1.600000e-01	2.774763e-09	
621	1.700000e-01	3.783370e-09	
622	1.800000e-01	5.150401e-09	
623	1.900000e-01	6.998722e-09	
624	2.000000e-01	9.490909e-09	
625	2.100000e-01	1.284086e-08	
626	2.200000e-01	1.732819e-08	
627	2.300000e-01	2.331591e-08	
628	2.400000e-01	3.127163e-08	
629	2.500000e-01	4.179280e-08	
630	2.600000e-01	5.563606e-08	
631	2.700000e-01	7.375095e-08	
632	2.800000e-01	9.731799e-08	
633	2.900000e-01	1.277913e-07	
634	3.000000e-01	1.669460e-07	

Index   v-sweep         vs#branch       
--------------------------------------------------------------------------------
635	3.100000e-01	2.169310e-07	
636	3.200000e-01	2.803284e-07	
637	3.300000e-01	3.602206e-07	
638	3.400000e-01	4.602673e-07	
639	3.500000e-01	5.847947e-07	
640	3.600000e-01	7.388948e-07	
641	3.700000e-01	9.285377e-07	
642	3.800000e-01	1.160686e-06	
643	3.900000e-01	1.443408e-06	
644	4.000000e-01	1.785962e-06	
645	4.100000e-01	2.198846e-06	
646	4.200000e-01	2.693765e-06	
647	4.300000e-01	3.283499e-06	
648	4.400000e-01	3.981636e-06	
649	4.500000e-01	4.802161e-06	
650	4.600000e-01	5.758892e-06	
651	4.700000e-01	6.864813e-06	
652	4.800000e-01	8.131351e-06	
653	4.900000e-01	9.567693e-06	
654	5.000000e-01	1.118022e-05	
655	5.100000e-01	1.297214e-05	
656	5.200000e-01	1.494337e-05	
657	5.300000e-01	1.709066e-05	
658	5.400000e-01	1.940791e-05	
659	5.500000e-01	2.188661e-05	
660	5.600000e-01	2.451644e-05	
661	5.700000e-01	2.728577e-05	
662	5.800000e-01	3.018226e-05	
663	5.900000e-01	3.319328e-05	
664	6.000000e-01	3.630632e-05	
665	6.100000e-01	3.950927e-05	
666	6.200000e-01	4.275330e-05	
667	6.300000e-01	4.610771e-05	
668	6.400000e-01	4.951966e-05	
669	6.500000e-01	5.298023e-05	
670	6.600000e-01	5.648142e-05	
671	6.700000e-01	6.001611e-05	
672	6.800000e-01	6.357799e-05	
673	6.900000e-01	6.716150e-05	
674	7.000000e-01	7.076179e-05	
675	7.100000e-01	7.437461e-05	
676	7.200000e-01	7.799627e-05	
677	7.300000e-01	8.162356e-05	
678	7.400000e-01	8.525368e-05	
679	7.500000e-01	8.888425e-05	
680	7.600000e-01	9.251315e-05	
681	7.700000e-01	9.613860e-05	
682	7.800000e-01	9.975902e-05	
683	7.900000e-01	1.033731e-04	
684	8.000000e-01	1.069795e-04	
685	8.100000e-01	1.105774e-04	
686	8.200000e-01	1.141659e-04	
687	8.300000e-01	1.177441e-04	
688	8.400000e-01	1.213113e-04	
689	8.500000e-01	1.248671e-04	
690	8.600000e-01	1.284109e-04	
691	8.700000e-01	1.319421e-04	
692	8.800000e-01	1.354605e-04	

Index   v-sweep         vs#branch       
--------------------------------------------------------------------------------
693	8.900000e-01	1.389656e-04	
694	9.000000e-01	1.424572e-04	
695	9.100000e-01	1.459350e-04	
696	9.200000e-01	1.493987e-04	
697	9.300000e-01	1.528480e-04	
698	9.400000e-01	1.562829e-04	
699	9.500000e-01	1.597030e-04	
700	9.600000e-01	1.631083e-04	
701	9.700000e-01	1.664986e-04	
702	9.800000e-01	1.698737e-04	
703	9.900000e-01	1.732336e-04	
704	1.000000e+00	1.765781e-04	
705	1.010000e+00	1.799071e-04	
706	1.020000e+00	1.832205e-04	
707	1.030000e+00	1.865183e-04	
708	1.040000e+00	1.898004e-04	
709	1.050000e+00	1.930666e-04	
710	1.060000e+00	1.963169e-04	
711	1.070000e+00	1.995514e-04	
712	1.080000e+00	2.027698e-04	
713	1.090000e+00	2.059722e-04	
714	1.100000e+00	2.091585e-04	
715	1.110000e+00	2.123286e-04	
716	1.120000e+00	2.154826e-04	
717	1.130000e+00	2.186204e-04	
718	1.140000e+00	2.217419e-04	
719	1.150000e+00	2.248472e-04	
720	1.160000e+00	2.279362e-04	
721	1.170000e+00	2.310088e-04	
722	1.180000e+00	2.340651e-04	
723	1.190000e+00	2.371051e-04	
724	1.200000e+00	2.401287e-04	
725	1.210000e+00	2.431358e-04	
726	1.220000e+00	2.461266e-04	
727	1.230000e+00	2.491010e-04	
728	1.240000e+00	2.520590e-04	
729	1.250000e+00	2.550006e-04	
730	1.260000e+00	2.579257e-04	
731	1.270000e+00	2.608344e-04	
732	1.280000e+00	2.637267e-04	
733	1.290000e+00	2.666026e-04	
734	1.300000e+00	2.694620e-04	
735	1.310000e+00	2.723051e-04	
736	1.320000e+00	2.751317e-04	
737	1.330000e+00	2.779420e-04	
738	1.340000e+00	2.807359e-04	
739	1.350000e+00	2.835134e-04	
740	1.360000e+00	2.862745e-04	
741	1.370000e+00	2.890193e-04	
742	1.380000e+00	2.917478e-04	
743	1.390000e+00	2.944600e-04	
744	1.400000e+00	2.971559e-04	
745	1.410000e+00	2.998355e-04	
746	1.420000e+00	3.024989e-04	
747	1.430000e+00	3.051461e-04	
748	1.440000e+00	3.077771e-04	
749	1.450000e+00	3.103919e-04	
750	1.460000e+00	3.129905e-04	

Index   v-sweep         vs#branch       
--------------------------------------------------------------------------------
751	1.470000e+00	3.155730e-04	
752	1.480000e+00	3.181395e-04	
753	1.490000e+00	3.206898e-04	
754	1.500000e+00	3.232242e-04	
755	0.000000e+00	3.463674e-11	
756	1.000000e-02	4.717950e-11	
757	2.000000e-02	6.437258e-11	
758	3.000000e-02	8.793096e-11	
759	4.000000e-02	1.201972e-10	
760	5.000000e-02	1.643681e-10	
761	6.000000e-02	2.248026e-10	
762	7.000000e-02	3.074369e-10	
763	8.000000e-02	4.203452e-10	
764	9.000000e-02	5.744935e-10	
765	1.000000e-01	7.847505e-10	
766	1.100000e-01	1.071237e-09	
767	1.200000e-01	1.461121e-09	
768	1.300000e-01	1.990993e-09	
769	1.400000e-01	2.709990e-09	
770	1.500000e-01	3.683879e-09	
771	1.600000e-01	5.000357e-09	
772	1.700000e-01	6.775862e-09	
773	1.800000e-01	9.164250e-09	
774	1.900000e-01	1.236773e-08	
775	2.000000e-01	1.665046e-08	
776	2.100000e-01	2.235526e-08	
777	2.200000e-01	2.992382e-08	
778	2.300000e-01	3.992077e-08	
779	2.400000e-01	5.306190e-08	
780	2.500000e-01	7.024675e-08	
781	2.600000e-01	9.259568e-08	
782	2.700000e-01	1.214916e-07	
783	2.800000e-01	1.586265e-07	
784	2.900000e-01	2.060534e-07	
785	3.000000e-01	2.662449e-07	
786	3.100000e-01	3.421587e-07	
787	3.200000e-01	4.373131e-07	
788	3.300000e-01	5.558728e-07	
789	3.400000e-01	7.027467e-07	
790	3.500000e-01	8.836952e-07	
791	3.600000e-01	1.105445e-06	
792	3.700000e-01	1.375800e-06	
793	3.800000e-01	1.703734e-06	
794	3.900000e-01	2.099446e-06	
795	4.000000e-01	2.574350e-06	
796	4.100000e-01	3.140969e-06	
797	4.200000e-01	3.812702e-06	
798	4.300000e-01	4.603452e-06	
799	4.400000e-01	5.527108e-06	
800	4.500000e-01	6.596900e-06	
801	4.600000e-01	7.824699e-06	
802	4.700000e-01	9.220318e-06	
803	4.800000e-01	1.079092e-05	
804	4.900000e-01	1.254061e-05	
805	5.000000e-01	1.447022e-05	
806	5.100000e-01	1.657740e-05	
807	5.200000e-01	1.885687e-05	
808	5.300000e-01	2.130084e-05	

Index   v-sweep         vs#branch       
--------------------------------------------------------------------------------
809	5.400000e-01	2.389954e-05	
810	5.500000e-01	2.664175e-05	
811	5.600000e-01	2.951538e-05	
812	5.700000e-01	3.250792e-05	
813	5.800000e-01	3.560688e-05	
814	5.900000e-01	3.880005e-05	
815	6.000000e-01	4.203639e-05	
816	6.100000e-01	4.538918e-05	
817	6.200000e-01	4.880317e-05	
818	6.300000e-01	5.226918e-05	
819	6.400000e-01	5.577892e-05	
820	6.500000e-01	5.932496e-05	
821	6.600000e-01	6.290073e-05	
822	6.700000e-01	6.650043e-05	
823	6.800000e-01	7.011894e-05	
824	6.900000e-01	7.375180e-05	
825	7.000000e-01	7.739512e-05	
826	7.100000e-01	8.104551e-05	
827	7.200000e-01	8.470002e-05	
828	7.300000e-01	8.835609e-05	
829	7.400000e-01	9.201152e-05	
830	7.500000e-01	9.566437e-05	
831	7.600000e-01	9.931300e-05	
832	7.700000e-01	1.029559e-04	
833	7.800000e-01	1.065920e-04	
834	7.900000e-01	1.102200e-04	
835	8.000000e-01	1.138390e-04	
836	8.100000e-01	1.174483e-04	
837	8.200000e-01	1.210470e-04	
838	8.300000e-01	1.246346e-04	
839	8.400000e-01	1.282105e-04	
840	8.500000e-01	1.317743e-04	
841	8.600000e-01	1.353254e-04	
842	8.700000e-01	1.388635e-04	
843	8.800000e-01	1.423883e-04	
844	8.900000e-01	1.458995e-04	
845	9.000000e-01	1.493968e-04	
846	9.100000e-01	1.528800e-04	
847	9.200000e-01	1.563488e-04	
848	9.300000e-01	1.598030e-04	
849	9.400000e-01	1.632426e-04	
850	9.500000e-01	1.666672e-04	
851	9.600000e-01	1.700769e-04	
852	9.700000e-01	1.734713e-04	
853	9.800000e-01	1.768505e-04	
854	9.900000e-01	1.802143e-04	
855	1.000000e+00	1.835626e-04	
856	1.010000e+00	1.868954e-04	
857	1.020000e+00	1.902124e-04	
858	1.030000e+00	1.935137e-04	
859	1.040000e+00	1.967992e-04	
860	1.050000e+00	2.000688e-04	
861	1.060000e+00	2.033225e-04	
862	1.070000e+00	2.065601e-04	
863	1.080000e+00	2.097817e-04	
864	1.090000e+00	2.129872e-04	
865	1.100000e+00	2.161765e-04	
866	1.110000e+00	2.193496e-04	

Index   v-sweep         vs#branch       
--------------------------------------------------------------------------------
867	1.120000e+00	2.225066e-04	
868	1.130000e+00	2.256472e-04	
869	1.140000e+00	2.287716e-04	
870	1.150000e+00	2.318796e-04	
871	1.160000e+00	2.349713e-04	
872	1.170000e+00	2.380466e-04	
873	1.180000e+00	2.411055e-04	
874	1.190000e+00	2.441480e-04	
875	1.200000e+00	2.471741e-04	
876	1.210000e+00	2.501838e-04	
877	1.220000e+00	2.531770e-04	
878	1.230000e+00	2.561538e-04	
879	1.240000e+00	2.591141e-04	
880	1.250000e+00	2.620579e-04	
881	1.260000e+00	2.649853e-04	
882	1.270000e+00	2.678962e-04	
883	1.280000e+00	2.707906e-04	
884	1.290000e+00	2.736686e-04	
885	1.300000e+00	2.765301e-04	
886	1.310000e+00	2.793752e-04	
887	1.320000e+00	2.822038e-04	
888	1.330000e+00	2.850160e-04	
889	1.340000e+00	2.878117e-04	
890	1.350000e+00	2.905910e-04	
891	1.360000e+00	2.933540e-04	
892	1.370000e+00	2.961005e-04	
893	1.380000e+00	2.988307e-04	
894	1.390000e+00	3.015445e-04	
895	1.400000e+00	3.042420e-04	
896	1.410000e+00	3.069232e-04	
897	1.420000e+00	3.095880e-04	
898	1.430000e+00	3.122366e-04	
899	1.440000e+00	3.148690e-04	
900	1.450000e+00	3.174851e-04	
901	1.460000e+00	3.200851e-04	
902	1.470000e+00	3.226688e-04	
903	1.480000e+00	3.252365e-04	
904	1.490000e+00	3.277880e-04	
905	1.500000e+00	3.303234e-04	
906	0.000000e+00	1.045384e-10	
907	1.000000e-02	1.404399e-10	
908	2.000000e-02	1.893844e-10	
909	3.000000e-02	2.560736e-10	
910	4.000000e-02	3.468845e-10	
911	5.000000e-02	4.704551e-10	
912	6.000000e-02	6.384687e-10	
913	7.000000e-02	8.667021e-10	
914	8.000000e-02	1.176419e-09	
915	9.000000e-02	1.596215e-09	
916	1.000000e-01	2.164452e-09	
917	1.100000e-01	2.932448e-09	
918	1.200000e-01	3.968627e-09	
919	1.300000e-01	5.363896e-09	
920	1.400000e-01	7.238524e-09	
921	1.500000e-01	9.750897e-09	
922	1.600000e-01	1.310851e-08	
923	1.700000e-01	1.758161e-08	
924	1.800000e-01	2.352000e-08	

Index   v-sweep         vs#branch       
--------------------------------------------------------------------------------
925	1.900000e-01	3.137322e-08	
926	2.000000e-01	4.171477e-08	
927	2.100000e-01	5.527041e-08	
928	2.200000e-01	7.295098e-08	
929	2.300000e-01	9.588982e-08	
930	2.400000e-01	1.254851e-07	
931	2.500000e-01	1.634470e-07	
932	2.600000e-01	2.118512e-07	
933	2.700000e-01	2.731982e-07	
934	2.800000e-01	3.504810e-07	
935	2.900000e-01	4.472614e-07	
936	3.000000e-01	5.677581e-07	
937	3.100000e-01	7.169442e-07	
938	3.200000e-01	9.006563e-07	
939	3.300000e-01	1.125706e-06	
940	3.400000e-01	1.399992e-06	
941	3.500000e-01	1.732584e-06	
942	3.600000e-01	2.133780e-06	
943	3.700000e-01	2.615081e-06	
944	3.800000e-01	3.189086e-06	
945	3.900000e-01	3.869251e-06	
946	4.000000e-01	4.669510e-06	
947	4.100000e-01	5.603758e-06	
948	4.200000e-01	6.685210e-06	
949	4.300000e-01	7.925707e-06	
950	4.400000e-01	9.335025e-06	
951	4.500000e-01	1.092030e-05	
952	4.600000e-01	1.268561e-05	
953	4.700000e-01	1.463182e-05	
954	4.800000e-01	1.675661e-05	
955	4.900000e-01	1.905474e-05	
956	5.000000e-01	2.151851e-05	
957	5.100000e-01	2.413824e-05	
958	5.200000e-01	2.690280e-05	
959	5.300000e-01	2.980018e-05	
960	5.400000e-01	3.281794e-05	
961	5.500000e-01	3.594363e-05	
962	5.600000e-01	3.916507e-05	
963	5.700000e-01	4.243047e-05	
964	5.800000e-01	4.581462e-05	
965	5.900000e-01	4.926149e-05	
966	6.000000e-01	5.276183e-05	
967	6.100000e-01	5.630729e-05	
968	6.200000e-01	5.989037e-05	
969	6.300000e-01	6.350442e-05	
970	6.400000e-01	6.714356e-05	
971	6.500000e-01	7.080260e-05	
972	6.600000e-01	7.447701e-05	
973	6.700000e-01	7.816280e-05	
974	6.800000e-01	8.185652e-05	
975	6.900000e-01	8.555515e-05	
976	7.000000e-01	8.925609e-05	
977	7.100000e-01	9.295705e-05	
978	7.200000e-01	9.665607e-05	
979	7.300000e-01	1.003514e-04	
980	7.400000e-01	1.040417e-04	
981	7.500000e-01	1.077254e-04	
982	7.600000e-01	1.114017e-04	

Index   v-sweep         vs#branch       
--------------------------------------------------------------------------------
983	7.700000e-01	1.150694e-04	
984	7.800000e-01	1.187276e-04	
985	7.900000e-01	1.223758e-04	
986	8.000000e-01	1.260132e-04	
987	8.100000e-01	1.296391e-04	
988	8.200000e-01	1.332532e-04	
989	8.300000e-01	1.368550e-04	
990	8.400000e-01	1.404441e-04	
991	8.500000e-01	1.440201e-04	
992	8.600000e-01	1.475826e-04	
993	8.700000e-01	1.511315e-04	
994	8.800000e-01	1.546665e-04	
995	8.900000e-01	1.581873e-04	
996	9.000000e-01	1.616938e-04	
997	9.100000e-01	1.651857e-04	
998	9.200000e-01	1.686629e-04	
999	9.300000e-01	1.721252e-04	
1000	9.400000e-01	1.755724e-04	
1001	9.500000e-01	1.790046e-04	
1002	9.600000e-01	1.824214e-04	
1003	9.700000e-01	1.858229e-04	
1004	9.800000e-01	1.892089e-04	
1005	9.900000e-01	1.925794e-04	
1006	1.000000e+00	1.959341e-04	
1007	1.010000e+00	1.992732e-04	
1008	1.020000e+00	2.025964e-04	
1009	1.030000e+00	2.059037e-04	
1010	1.040000e+00	2.091951e-04	
1011	1.050000e+00	2.124704e-04	
1012	1.060000e+00	2.157297e-04	
1013	1.070000e+00	2.189729e-04	
1014	1.080000e+00	2.221999e-04	
1015	1.090000e+00	2.254107e-04	
1016	1.100000e+00	2.286053e-04	
1017	1.110000e+00	2.317836e-04	
1018	1.120000e+00	2.349455e-04	
1019	1.130000e+00	2.380911e-04	
1020	1.140000e+00	2.412203e-04	
1021	1.150000e+00	2.443331e-04	
1022	1.160000e+00	2.474295e-04	
1023	1.170000e+00	2.505094e-04	
1024	1.180000e+00	2.535728e-04	
1025	1.190000e+00	2.566198e-04	
1026	1.200000e+00	2.596502e-04	
1027	1.210000e+00	2.626642e-04	
1028	1.220000e+00	2.656616e-04	
1029	1.230000e+00	2.686425e-04	
1030	1.240000e+00	2.716068e-04	
1031	1.250000e+00	2.745546e-04	
1032	1.260000e+00	2.774858e-04	
1033	1.270000e+00	2.804005e-04	
1034	1.280000e+00	2.832987e-04	
1035	1.290000e+00	2.861803e-04	
1036	1.300000e+00	2.890453e-04	
1037	1.310000e+00	2.918938e-04	
1038	1.320000e+00	2.947258e-04	
1039	1.330000e+00	2.975413e-04	
1040	1.340000e+00	3.003403e-04	

Index   v-sweep         vs#branch       
--------------------------------------------------------------------------------
1041	1.350000e+00	3.031228e-04	
1042	1.360000e+00	3.058887e-04	
1043	1.370000e+00	3.086382e-04	
1044	1.380000e+00	3.113713e-04	
1045	1.390000e+00	3.140879e-04	
1046	1.400000e+00	3.167881e-04	
1047	1.410000e+00	3.194719e-04	
1048	1.420000e+00	3.221393e-04	
1049	1.430000e+00	3.247904e-04	
1050	1.440000e+00	3.274251e-04	
1051	1.450000e+00	3.300435e-04	
1052	1.460000e+00	3.326456e-04	
1053	1.470000e+00	3.352315e-04	
1054	1.480000e+00	3.378011e-04	
1055	1.490000e+00	3.403546e-04	
1056	1.500000e+00	3.428918e-04	
1057	0.000000e+00	4.795506e-10	
1058	1.000000e-02	6.196464e-10	
1059	2.000000e-02	8.091557e-10	
1060	3.000000e-02	1.065278e-09	
1061	4.000000e-02	1.411076e-09	
1062	5.000000e-02	1.877411e-09	
1063	6.000000e-02	2.505474e-09	
1064	7.000000e-02	3.350099e-09	
1065	8.000000e-02	4.484049e-09	
1066	9.000000e-02	6.003532e-09	
1067	1.000000e-01	8.035260e-09	
1068	1.100000e-01	1.074536e-08	
1069	1.200000e-01	1.435056e-08	
1070	1.300000e-01	1.913204e-08	
1071	1.400000e-01	2.545238e-08	
1072	1.500000e-01	3.377604e-08	
1073	1.600000e-01	4.469378e-08	
1074	1.700000e-01	5.895133e-08	
1075	1.800000e-01	7.748264e-08	
1076	1.900000e-01	1.014480e-07	
1077	2.000000e-01	1.322771e-07	
1078	2.100000e-01	1.717180e-07	
1079	2.200000e-01	2.218914e-07	
1080	2.300000e-01	2.853528e-07	
1081	2.400000e-01	3.651618e-07	
1082	2.500000e-01	4.649620e-07	
1083	2.600000e-01	5.890700e-07	
1084	2.700000e-01	7.425761e-07	
1085	2.800000e-01	9.314530e-07	
1086	2.900000e-01	1.162668e-06	
1087	3.000000e-01	1.444289e-06	
1088	3.100000e-01	1.785569e-06	
1089	3.200000e-01	2.196987e-06	
1090	3.300000e-01	2.690219e-06	
1091	3.400000e-01	3.278015e-06	
1092	3.500000e-01	3.973945e-06	
1093	3.600000e-01	4.792012e-06	
1094	3.700000e-01	5.746120e-06	
1095	3.800000e-01	6.849443e-06	
1096	3.900000e-01	8.113722e-06	
1097	4.000000e-01	9.548603e-06	
1098	4.100000e-01	1.116107e-05	

Index   v-sweep         vs#branch       
--------------------------------------------------------------------------------
1099	4.200000e-01	1.295505e-05	
1100	4.300000e-01	1.493128e-05	
1101	4.400000e-01	1.708735e-05	
1102	4.500000e-01	1.941797e-05	
1103	4.600000e-01	2.191543e-05	
1104	4.700000e-01	2.457007e-05	
1105	4.800000e-01	2.737081e-05	
1106	4.900000e-01	3.030571e-05	
1107	5.000000e-01	3.336239e-05	
1108	5.100000e-01	3.652846e-05	
1109	5.200000e-01	3.979178e-05	
1110	5.300000e-01	4.309982e-05	
1111	5.400000e-01	4.652892e-05	
1112	5.500000e-01	5.002227e-05	
1113	5.600000e-01	5.357061e-05	
1114	5.700000e-01	5.716553e-05	
1115	5.800000e-01	6.079949e-05	
1116	5.900000e-01	6.446578e-05	
1117	6.000000e-01	6.815845e-05	
1118	6.100000e-01	7.187223e-05	
1119	6.200000e-01	7.560252e-05	
1120	6.300000e-01	7.934528e-05	
1121	6.400000e-01	8.309697e-05	
1122	6.500000e-01	8.685452e-05	
1123	6.600000e-01	9.061525e-05	
1124	6.700000e-01	9.437683e-05	
1125	6.800000e-01	9.813724e-05	
1126	6.900000e-01	1.018947e-04	
1127	7.000000e-01	1.056477e-04	
1128	7.100000e-01	1.093949e-04	
1129	7.200000e-01	1.131351e-04	
1130	7.300000e-01	1.168674e-04	
1131	7.400000e-01	1.205908e-04	
1132	7.500000e-01	1.243045e-04	
1133	7.600000e-01	1.280079e-04	
1134	7.700000e-01	1.317004e-04	
1135	7.800000e-01	1.353814e-04	
1136	7.900000e-01	1.390505e-04	
1137	8.000000e-01	1.427072e-04	
1138	8.100000e-01	1.463512e-04	
1139	8.200000e-01	1.499821e-04	
1140	8.300000e-01	1.535997e-04	
1141	8.400000e-01	1.572037e-04	
1142	8.500000e-01	1.607938e-04	
1143	8.600000e-01	1.643698e-04	
1144	8.700000e-01	1.679315e-04	
1145	8.800000e-01	1.714788e-04	
1146	8.900000e-01	1.750114e-04	
1147	9.000000e-01	1.785292e-04	
1148	9.100000e-01	1.820321e-04	
1149	9.200000e-01	1.855199e-04	
1150	9.300000e-01	1.889925e-04	
1151	9.400000e-01	1.924498e-04	
1152	9.500000e-01	1.958917e-04	
1153	9.600000e-01	1.993181e-04	
1154	9.700000e-01	2.027288e-04	
1155	9.800000e-01	2.061239e-04	
1156	9.900000e-01	2.095033e-04	

Index   v-sweep         vs#branch       
--------------------------------------------------------------------------------
1157	1.000000e+00	2.128667e-04	
1158	1.010000e+00	2.162143e-04	
1159	1.020000e+00	2.195459e-04	
1160	1.030000e+00	2.228615e-04	
1161	1.040000e+00	2.261610e-04	
1162	1.050000e+00	2.294443e-04	
1163	1.060000e+00	2.327114e-04	
1164	1.070000e+00	2.359623e-04	
1165	1.080000e+00	2.391969e-04	
1166	1.090000e+00	2.424151e-04	
1167	1.100000e+00	2.456170e-04	
1168	1.110000e+00	2.488025e-04	
1169	1.120000e+00	2.519716e-04	
1170	1.130000e+00	2.551242e-04	
1171	1.140000e+00	2.582603e-04	
1172	1.150000e+00	2.613798e-04	
1173	1.160000e+00	2.644829e-04	
1174	1.170000e+00	2.675694e-04	
1175	1.180000e+00	2.706393e-04	
1176	1.190000e+00	2.736926e-04	
1177	1.200000e+00	2.767293e-04	
1178	1.210000e+00	2.797494e-04	
1179	1.220000e+00	2.827528e-04	
1180	1.230000e+00	2.857397e-04	
1181	1.240000e+00	2.887098e-04	
1182	1.250000e+00	2.916633e-04	
1183	1.260000e+00	2.946002e-04	
1184	1.270000e+00	2.975204e-04	
1185	1.280000e+00	3.004240e-04	
1186	1.290000e+00	3.033109e-04	
1187	1.300000e+00	3.061811e-04	
1188	1.310000e+00	3.090347e-04	
1189	1.320000e+00	3.118717e-04	
1190	1.330000e+00	3.146920e-04	
1191	1.340000e+00	3.174957e-04	
1192	1.350000e+00	3.202828e-04	
1193	1.360000e+00	3.230534e-04	
1194	1.370000e+00	3.258073e-04	
1195	1.380000e+00	3.285446e-04	
1196	1.390000e+00	3.312654e-04	
1197	1.400000e+00	3.339697e-04	
1198	1.410000e+00	3.366574e-04	
1199	1.420000e+00	3.393287e-04	
1200	1.430000e+00	3.419834e-04	
1201	1.440000e+00	3.446217e-04	
1202	1.450000e+00	3.472436e-04	
1203	1.460000e+00	3.498491e-04	
1204	1.470000e+00	3.524382e-04	
1205	1.480000e+00	3.550109e-04	
1206	1.490000e+00	3.575673e-04	
1207	1.500000e+00	3.601074e-04	
1208	0.000000e+00	3.964428e-09	
1209	1.000000e-02	4.609593e-09	
1210	2.000000e-02	5.472023e-09	
1211	3.000000e-02	6.623095e-09	
1212	4.000000e-02	8.156726e-09	
1213	5.000000e-02	1.019603e-08	
1214	6.000000e-02	1.290176e-08	

Index   v-sweep         vs#branch       
--------------------------------------------------------------------------------
1215	7.000000e-02	1.648280e-08	
1216	8.000000e-02	2.120931e-08	
1217	9.000000e-02	2.742865e-08	
1218	1.000000e-01	3.558485e-08	
1219	1.100000e-01	4.624181e-08	
1220	1.200000e-01	6.011071e-08	
1221	1.300000e-01	7.808208e-08	
1222	1.400000e-01	1.012627e-07	
1223	1.500000e-01	1.310179e-07	
1224	1.600000e-01	1.690196e-07	
1225	1.700000e-01	2.173002e-07	
1226	1.800000e-01	2.783144e-07	
1227	1.900000e-01	3.550087e-07	
1228	2.000000e-01	4.508997e-07	
1229	2.100000e-01	5.701636e-07	
1230	2.200000e-01	7.177351e-07	
1231	2.300000e-01	8.994153e-07	
1232	2.400000e-01	1.121983e-06	
1233	2.500000e-01	1.393303e-06	
1234	2.600000e-01	1.722410e-06	
1235	2.700000e-01	2.119565e-06	
1236	2.800000e-01	2.596235e-06	
1237	2.900000e-01	3.164994e-06	
1238	3.000000e-01	3.839298e-06	
1239	3.100000e-01	4.633133e-06	
1240	3.200000e-01	5.560519e-06	
1241	3.300000e-01	6.634904e-06	
1242	3.400000e-01	7.868491e-06	
1243	3.500000e-01	9.271556e-06	
1244	3.600000e-01	1.085187e-05	
1245	3.700000e-01	1.261427e-05	
1246	3.800000e-01	1.456043e-05	
1247	3.900000e-01	1.668888e-05	
1248	4.000000e-01	1.899525e-05	
1249	4.100000e-01	2.147258e-05	
1250	4.200000e-01	2.411187e-05	
1251	4.300000e-01	2.690254e-05	
1252	4.400000e-01	2.983300e-05	
1253	4.500000e-01	3.289107e-05	
1254	4.600000e-01	3.606442e-05	
1255	4.700000e-01	3.934088e-05	
1256	4.800000e-01	4.270873e-05	
1257	4.900000e-01	4.611851e-05	
1258	5.000000e-01	4.964158e-05	
1259	5.100000e-01	5.322456e-05	
1260	5.200000e-01	5.685873e-05	
1261	5.300000e-01	6.053620e-05	
1262	5.400000e-01	6.424992e-05	
1263	5.500000e-01	6.799359e-05	
1264	5.600000e-01	7.176165e-05	
1265	5.700000e-01	7.554919e-05	
1266	5.800000e-01	7.935191e-05	
1267	5.900000e-01	8.316601e-05	
1268	6.000000e-01	8.698819e-05	
1269	6.100000e-01	9.081557e-05	
1270	6.200000e-01	9.464562e-05	
1271	6.300000e-01	9.847617e-05	
1272	6.400000e-01	1.023053e-04	

Index   v-sweep         vs#branch       
--------------------------------------------------------------------------------
1273	6.500000e-01	1.061313e-04	
1274	6.600000e-01	1.099528e-04	
1275	6.700000e-01	1.137685e-04	
1276	6.800000e-01	1.175773e-04	
1277	6.900000e-01	1.213782e-04	
1278	7.000000e-01	1.251703e-04	
1279	7.100000e-01	1.289530e-04	
1280	7.200000e-01	1.327255e-04	
1281	7.300000e-01	1.364873e-04	
1282	7.400000e-01	1.402379e-04	
1283	7.500000e-01	1.439767e-04	
1284	7.600000e-01	1.477035e-04	
1285	7.700000e-01	1.514177e-04	
1286	7.800000e-01	1.551192e-04	
1287	7.900000e-01	1.588075e-04	
1288	8.000000e-01	1.624825e-04	
1289	8.100000e-01	1.661438e-04	
1290	8.200000e-01	1.697913e-04	
1291	8.300000e-01	1.734248e-04	
1292	8.400000e-01	1.770440e-04	
1293	8.500000e-01	1.806488e-04	
1294	8.600000e-01	1.842390e-04	
1295	8.700000e-01	1.878144e-04	
1296	8.800000e-01	1.913750e-04	
1297	8.900000e-01	1.949206e-04	
1298	9.000000e-01	1.984511e-04	
1299	9.100000e-01	2.019664e-04	
1300	9.200000e-01	2.054663e-04	
1301	9.300000e-01	2.089508e-04	
1302	9.400000e-01	2.124197e-04	
1303	9.500000e-01	2.158731e-04	
1304	9.600000e-01	2.193107e-04	
1305	9.700000e-01	2.227325e-04	
1306	9.800000e-01	2.261385e-04	
1307	9.900000e-01	2.295286e-04	
1308	1.000000e+00	2.329026e-04	
1309	1.010000e+00	2.362606e-04	
1310	1.020000e+00	2.396025e-04	
1311	1.030000e+00	2.429282e-04	
1312	1.040000e+00	2.462377e-04	
1313	1.050000e+00	2.495309e-04	
1314	1.060000e+00	2.528077e-04	
1315	1.070000e+00	2.560683e-04	
1316	1.080000e+00	2.593123e-04	
1317	1.090000e+00	2.625400e-04	
1318	1.100000e+00	2.657512e-04	
1319	1.110000e+00	2.689458e-04	
1320	1.120000e+00	2.721239e-04	
1321	1.130000e+00	2.752854e-04	
1322	1.140000e+00	2.784303e-04	
1323	1.150000e+00	2.815586e-04	
1324	1.160000e+00	2.846702e-04	
1325	1.170000e+00	2.877652e-04	
1326	1.180000e+00	2.908434e-04	
1327	1.190000e+00	2.939050e-04	
1328	1.200000e+00	2.969498e-04	
1329	1.210000e+00	2.999779e-04	
1330	1.220000e+00	3.029892e-04	

Index   v-sweep         vs#branch       
--------------------------------------------------------------------------------
1331	1.230000e+00	3.059838e-04	
1332	1.240000e+00	3.089616e-04	
1333	1.250000e+00	3.119226e-04	
1334	1.260000e+00	3.148669e-04	
1335	1.270000e+00	3.177944e-04	
1336	1.280000e+00	3.207051e-04	
1337	1.290000e+00	3.235990e-04	
1338	1.300000e+00	3.264762e-04	
1339	1.310000e+00	3.293365e-04	
1340	1.320000e+00	3.321802e-04	
1341	1.330000e+00	3.350070e-04	
1342	1.340000e+00	3.378171e-04	
1343	1.350000e+00	3.406105e-04	
1344	1.360000e+00	3.433871e-04	
1345	1.370000e+00	3.461470e-04	
1346	1.380000e+00	3.488902e-04	
1347	1.390000e+00	3.516167e-04	
1348	1.400000e+00	3.543266e-04	
1349	1.410000e+00	3.570198e-04	
1350	1.420000e+00	3.596963e-04	
1351	1.430000e+00	3.623562e-04	
1352	1.440000e+00	3.649995e-04	
1353	1.450000e+00	3.676263e-04	
1354	1.460000e+00	3.702365e-04	
1355	1.470000e+00	3.728301e-04	
1356	1.480000e+00	3.754073e-04	
1357	1.490000e+00	3.779680e-04	
1358	1.500000e+00	3.805122e-04	




