
No. of Data Rows : 1359

Circuit: *model = BSIMSOI (PD)

Doing analysis at TEMP = 300.150000 and TNOM = 300.150000
Warning: Pd = 0 is less than W.
Warning: Ps = 0 is less than W.
                             *model = BSIMSOI (PD)
--------------------------------------------------------------------------------
Index   v-sweep         vs#branch       
--------------------------------------------------------------------------------
0	0.000000e+00	8.433234e-11	
1	1.000000e-02	1.173853e-10	
2	2.000000e-02	1.632588e-10	
3	3.000000e-02	2.268841e-10	
4	4.000000e-02	3.150653e-10	
5	5.000000e-02	4.371752e-10	
6	6.000000e-02	6.061032e-10	
7	7.000000e-02	8.395378e-10	
8	8.000000e-02	1.161696e-09	
9	9.000000e-02	1.605642e-09	
10	1.000000e-01	2.216377e-09	
11	1.100000e-01	3.054930e-09	
12	1.200000e-01	4.203719e-09	
13	1.300000e-01	5.773527e-09	
14	1.400000e-01	7.912466e-09	
15	1.500000e-01	1.081736e-08	
16	1.600000e-01	1.474798e-08	
17	1.700000e-01	2.004465e-08	
18	1.800000e-01	2.714951e-08	
19	1.900000e-01	3.663184e-08	
20	2.000000e-01	4.921768e-08	
21	2.100000e-01	6.582364e-08	
22	2.200000e-01	8.759512e-08	
23	2.300000e-01	1.159487e-07	
24	2.400000e-01	1.526188e-07	
25	2.500000e-01	1.997099e-07	
26	2.600000e-01	2.597536e-07	
27	2.700000e-01	3.357750e-07	
28	2.800000e-01	4.313687e-07	
29	2.900000e-01	5.507868e-07	
30	3.000000e-01	6.990425e-07	
31	3.100000e-01	8.820264e-07	
32	3.200000e-01	1.106633e-06	
33	3.300000e-01	1.380887e-06	
34	3.400000e-01	1.714056e-06	
35	3.500000e-01	2.116720e-06	
36	3.600000e-01	2.600778e-06	
37	3.700000e-01	3.179341e-06	
38	3.800000e-01	3.866500e-06	
39	3.900000e-01	4.676920e-06	
40	4.000000e-01	5.625275e-06	
41	4.100000e-01	6.725549e-06	
42	4.200000e-01	7.990251e-06	
43	4.300000e-01	9.429650e-06	
44	4.400000e-01	1.105112e-05	
45	4.500000e-01	1.285872e-05	
46	4.600000e-01	1.485294e-05	
47	4.700000e-01	1.703086e-05	
48	4.800000e-01	1.938642e-05	
49	4.900000e-01	2.191092e-05	
50	5.000000e-01	2.459361e-05	
51	5.100000e-01	2.742233e-05	
52	5.200000e-01	3.038407e-05	
53	5.300000e-01	3.346549e-05	
54	5.400000e-01	3.665341e-05	

Index   v-sweep         vs#branch       
--------------------------------------------------------------------------------
55	5.500000e-01	3.993505e-05	
56	5.600000e-01	4.329836e-05	
57	5.700000e-01	4.673214e-05	
58	5.800000e-01	5.022610e-05	
59	5.900000e-01	5.377097e-05	
60	6.000000e-01	5.735840e-05	
61	6.100000e-01	6.098099e-05	
62	6.200000e-01	6.463219e-05	
63	6.300000e-01	6.830625e-05	
64	6.400000e-01	7.199816e-05	
65	6.500000e-01	7.570353e-05	
66	6.600000e-01	7.941857e-05	
67	6.700000e-01	8.313998e-05	
68	6.800000e-01	8.686491e-05	
69	6.900000e-01	9.059089e-05	
70	7.000000e-01	9.431579e-05	
71	7.100000e-01	9.803777e-05	
72	7.200000e-01	1.017552e-04	
73	7.300000e-01	1.054668e-04	
74	7.400000e-01	1.091713e-04	
75	7.500000e-01	1.128676e-04	
76	7.600000e-01	1.165549e-04	
77	7.700000e-01	1.202323e-04	
78	7.800000e-01	1.238993e-04	
79	7.900000e-01	1.275551e-04	
80	8.000000e-01	1.311992e-04	
81	8.100000e-01	1.348313e-04	
82	8.200000e-01	1.384508e-04	
83	8.300000e-01	1.420573e-04	
84	8.400000e-01	1.456507e-04	
85	8.500000e-01	1.492305e-04	
86	8.600000e-01	1.527965e-04	
87	8.700000e-01	1.563485e-04	
88	8.800000e-01	1.598862e-04	
89	8.900000e-01	1.634095e-04	
90	9.000000e-01	1.669181e-04	
91	9.100000e-01	1.704120e-04	
92	9.200000e-01	1.738909e-04	
93	9.300000e-01	1.773548e-04	
94	9.400000e-01	1.808034e-04	
95	9.500000e-01	1.842368e-04	
96	9.600000e-01	1.876547e-04	
97	9.700000e-01	1.910572e-04	
98	9.800000e-01	1.944440e-04	
99	9.900000e-01	1.978151e-04	
100	1.000000e+00	2.011704e-04	
101	1.010000e+00	2.045099e-04	
102	1.020000e+00	2.078335e-04	
103	1.030000e+00	2.111411e-04	
104	1.040000e+00	2.144326e-04	
105	1.050000e+00	2.177081e-04	
106	1.060000e+00	2.209674e-04	
107	1.070000e+00	2.242105e-04	
108	1.080000e+00	2.274374e-04	
109	1.090000e+00	2.306480e-04	
110	1.100000e+00	2.338423e-04	
111	1.110000e+00	2.370202e-04	
112	1.120000e+00	2.401818e-04	

Index   v-sweep         vs#branch       
--------------------------------------------------------------------------------
113	1.130000e+00	2.433269e-04	
114	1.140000e+00	2.464556e-04	
115	1.150000e+00	2.495678e-04	
116	1.160000e+00	2.526636e-04	
117	1.170000e+00	2.557428e-04	
118	1.180000e+00	2.588055e-04	
119	1.190000e+00	2.618517e-04	
120	1.200000e+00	2.648813e-04	
121	1.210000e+00	2.678943e-04	
122	1.220000e+00	2.708908e-04	
123	1.230000e+00	2.738707e-04	
124	1.240000e+00	2.768340e-04	
125	1.250000e+00	2.797807e-04	
126	1.260000e+00	2.827108e-04	
127	1.270000e+00	2.856243e-04	
128	1.280000e+00	2.885213e-04	
129	1.290000e+00	2.914016e-04	
130	1.300000e+00	2.942654e-04	
131	1.310000e+00	2.971126e-04	
132	1.320000e+00	2.999432e-04	
133	1.330000e+00	3.027572e-04	
134	1.340000e+00	3.055548e-04	
135	1.350000e+00	3.083357e-04	
136	1.360000e+00	3.111002e-04	
137	1.370000e+00	3.138481e-04	
138	1.380000e+00	3.165795e-04	
139	1.390000e+00	3.192945e-04	
140	1.400000e+00	3.219930e-04	
141	1.410000e+00	3.246751e-04	
142	1.420000e+00	3.273407e-04	
143	1.430000e+00	3.299900e-04	
144	1.440000e+00	3.326229e-04	
145	1.450000e+00	3.352394e-04	
146	1.460000e+00	3.378396e-04	
147	1.470000e+00	3.404235e-04	
148	1.480000e+00	3.429912e-04	
149	1.490000e+00	3.455426e-04	
150	1.500000e+00	3.480777e-04	
151	0.000000e+00	3.189255e-11	
152	1.000000e-02	4.435540e-11	
153	2.000000e-02	6.163784e-11	
154	3.000000e-02	8.559318e-11	
155	4.000000e-02	1.187814e-10	
156	5.000000e-02	1.647354e-10	
157	6.000000e-02	2.283245e-10	
158	7.000000e-02	3.162525e-10	
159	8.000000e-02	4.377338e-10	
160	9.000000e-02	6.054119e-10	
161	1.000000e-01	8.366013e-10	
162	1.100000e-01	1.154958e-09	
163	1.200000e-01	1.592716e-09	
164	1.300000e-01	2.193662e-09	
165	1.400000e-01	3.017072e-09	
166	1.500000e-01	4.142860e-09	
167	1.600000e-01	5.678277e-09	
168	1.700000e-01	7.766511e-09	
169	1.800000e-01	1.059761e-08	
170	1.900000e-01	1.442217e-08	

Index   v-sweep         vs#branch       
--------------------------------------------------------------------------------
171	2.000000e-01	1.956821e-08	
172	2.100000e-01	2.646166e-08	
173	2.200000e-01	3.565081e-08	
174	2.300000e-01	4.783488e-08	
175	2.400000e-01	6.389687e-08	
176	2.500000e-01	8.494072e-08	
177	2.600000e-01	1.123326e-07	
178	2.700000e-01	1.477468e-07	
179	2.800000e-01	1.932161e-07	
180	2.900000e-01	2.511888e-07	
181	3.000000e-01	3.245919e-07	
182	3.100000e-01	4.169056e-07	
183	3.200000e-01	5.322484e-07	
184	3.300000e-01	6.754765e-07	
185	3.400000e-01	8.522962e-07	
186	3.500000e-01	1.069386e-06	
187	3.600000e-01	1.334520e-06	
188	3.700000e-01	1.656678e-06	
189	3.800000e-01	2.046121e-06	
190	3.900000e-01	2.514397e-06	
191	4.000000e-01	3.074263e-06	
192	4.100000e-01	3.739458e-06	
193	4.200000e-01	4.524337e-06	
194	4.300000e-01	5.443337e-06	
195	4.400000e-01	6.510303e-06	
196	4.500000e-01	7.737734e-06	
197	4.600000e-01	9.136030e-06	
198	4.700000e-01	1.071284e-05	
199	4.800000e-01	1.247258e-05	
200	4.900000e-01	1.441625e-05	
201	5.000000e-01	1.654142e-05	
202	5.100000e-01	1.884257e-05	
203	5.200000e-01	2.131151e-05	
204	5.300000e-01	2.393794e-05	
205	5.400000e-01	2.671009e-05	
206	5.500000e-01	2.961528e-05	
207	5.600000e-01	3.264041e-05	
208	5.700000e-01	3.577248e-05	
209	5.800000e-01	3.899883e-05	
210	5.900000e-01	4.230747e-05	
211	6.000000e-01	4.568721e-05	
212	6.100000e-01	4.912779e-05	
213	6.200000e-01	5.261986e-05	
214	6.300000e-01	5.615504e-05	
215	6.400000e-01	5.972587e-05	
216	6.500000e-01	6.332573e-05	
217	6.600000e-01	6.694883e-05	
218	6.700000e-01	7.059006e-05	
219	6.800000e-01	7.424499e-05	
220	6.900000e-01	7.790976e-05	
221	7.000000e-01	8.158104e-05	
222	7.100000e-01	8.525591e-05	
223	7.200000e-01	8.893187e-05	
224	7.300000e-01	9.260676e-05	
225	7.400000e-01	9.627870e-05	
226	7.500000e-01	9.994606e-05	
227	7.600000e-01	1.036075e-04	
228	7.700000e-01	1.072616e-04	

Index   v-sweep         vs#branch       
--------------------------------------------------------------------------------
229	7.800000e-01	1.109076e-04	
230	7.900000e-01	1.145444e-04	
231	8.000000e-01	1.181712e-04	
232	8.100000e-01	1.217874e-04	
233	8.200000e-01	1.253923e-04	
234	8.300000e-01	1.289854e-04	
235	8.400000e-01	1.325663e-04	
236	8.500000e-01	1.361344e-04	
237	8.600000e-01	1.396895e-04	
238	8.700000e-01	1.432312e-04	
239	8.800000e-01	1.467592e-04	
240	8.900000e-01	1.502733e-04	
241	9.000000e-01	1.537732e-04	
242	9.100000e-01	1.572588e-04	
243	9.200000e-01	1.607297e-04	
244	9.300000e-01	1.641860e-04	
245	9.400000e-01	1.676273e-04	
246	9.500000e-01	1.710536e-04	
247	9.600000e-01	1.744647e-04	
248	9.700000e-01	1.778605e-04	
249	9.800000e-01	1.812409e-04	
250	9.900000e-01	1.846058e-04	
251	1.000000e+00	1.879551e-04	
252	1.010000e+00	1.912887e-04	
253	1.020000e+00	1.946066e-04	
254	1.030000e+00	1.979086e-04	
255	1.040000e+00	2.011947e-04	
256	1.050000e+00	2.044649e-04	
257	1.060000e+00	2.077190e-04	
258	1.070000e+00	2.109571e-04	
259	1.080000e+00	2.141790e-04	
260	1.090000e+00	2.173848e-04	
261	1.100000e+00	2.205744e-04	
262	1.110000e+00	2.237477e-04	
263	1.120000e+00	2.269047e-04	
264	1.130000e+00	2.300454e-04	
265	1.140000e+00	2.331698e-04	
266	1.150000e+00	2.362778e-04	
267	1.160000e+00	2.393694e-04	
268	1.170000e+00	2.424446e-04	
269	1.180000e+00	2.455034e-04	
270	1.190000e+00	2.485457e-04	
271	1.200000e+00	2.515715e-04	
272	1.210000e+00	2.545809e-04	
273	1.220000e+00	2.575738e-04	
274	1.230000e+00	2.605502e-04	
275	1.240000e+00	2.635100e-04	
276	1.250000e+00	2.664534e-04	
277	1.260000e+00	2.693803e-04	
278	1.270000e+00	2.722907e-04	
279	1.280000e+00	2.751846e-04	
280	1.290000e+00	2.780619e-04	
281	1.300000e+00	2.809228e-04	
282	1.310000e+00	2.837672e-04	
283	1.320000e+00	2.865951e-04	
284	1.330000e+00	2.894066e-04	
285	1.340000e+00	2.922015e-04	
286	1.350000e+00	2.949801e-04	

Index   v-sweep         vs#branch       
--------------------------------------------------------------------------------
287	1.360000e+00	2.977422e-04	
288	1.370000e+00	3.004878e-04	
289	1.380000e+00	3.032171e-04	
290	1.390000e+00	3.059300e-04	
291	1.400000e+00	3.086265e-04	
292	1.410000e+00	3.113067e-04	
293	1.420000e+00	3.139705e-04	
294	1.430000e+00	3.166180e-04	
295	1.440000e+00	3.192493e-04	
296	1.450000e+00	3.218643e-04	
297	1.460000e+00	3.244631e-04	
298	1.470000e+00	3.270456e-04	
299	1.480000e+00	3.296120e-04	
300	1.490000e+00	3.321623e-04	
301	1.500000e+00	3.346964e-04	
302	0.000000e+00	1.721668e-11	
303	1.000000e-02	2.388772e-11	
304	2.000000e-02	3.312193e-11	
305	3.000000e-02	4.589976e-11	
306	4.000000e-02	6.357426e-11	
307	5.000000e-02	8.801134e-11	
308	6.000000e-02	1.217820e-10	
309	7.000000e-02	1.684254e-10	
310	8.000000e-02	2.328078e-10	
311	9.000000e-02	3.216122e-10	
312	1.000000e-01	4.440024e-10	
313	1.100000e-01	6.125230e-10	
314	1.200000e-01	8.443127e-10	
315	1.300000e-01	1.162735e-09	
316	1.400000e-01	1.599553e-09	
317	1.500000e-01	2.197827e-09	
318	1.600000e-01	3.015724e-09	
319	1.700000e-01	4.131521e-09	
320	1.800000e-01	5.650076e-09	
321	1.900000e-01	7.711158e-09	
322	2.000000e-01	1.050001e-08	
323	2.100000e-01	1.426057e-08	
324	2.200000e-01	1.931181e-08	
325	2.300000e-01	2.606762e-08	
326	2.400000e-01	3.506045e-08	
327	2.500000e-01	4.696916e-08	
328	2.600000e-01	6.265104e-08	
329	2.700000e-01	8.317815e-08	
330	2.800000e-01	1.098779e-07	
331	2.900000e-01	1.443779e-07	
332	3.000000e-01	1.886563e-07	
333	3.100000e-01	2.450966e-07	
334	3.200000e-01	3.165513e-07	
335	3.300000e-01	4.064134e-07	
336	3.400000e-01	5.187001e-07	
337	3.500000e-01	6.581490e-07	
338	3.600000e-01	8.303274e-07	
339	3.700000e-01	1.041750e-06	
340	3.800000e-01	1.300001e-06	
341	3.900000e-01	1.613841e-06	
342	4.000000e-01	1.993282e-06	
343	4.100000e-01	2.449604e-06	
344	4.200000e-01	2.995279e-06	

Index   v-sweep         vs#branch       
--------------------------------------------------------------------------------
345	4.300000e-01	3.643767e-06	
346	4.400000e-01	4.409168e-06	
347	4.500000e-01	5.305717e-06	
348	4.600000e-01	6.347133e-06	
349	4.700000e-01	7.545891e-06	
350	4.800000e-01	8.912481e-06	
351	4.900000e-01	1.045475e-05	
352	5.000000e-01	1.217743e-05	
353	5.100000e-01	1.408188e-05	
354	5.200000e-01	1.616612e-05	
355	5.300000e-01	1.842507e-05	
356	5.400000e-01	2.085096e-05	
357	5.500000e-01	2.343390e-05	
358	5.600000e-01	2.616247e-05	
359	5.700000e-01	2.902425e-05	
360	5.800000e-01	3.200641e-05	
361	5.900000e-01	3.509606e-05	
362	6.000000e-01	3.828069e-05	
363	6.100000e-01	4.154835e-05	
364	6.200000e-01	4.488789e-05	
365	6.300000e-01	4.828902e-05	
366	6.400000e-01	5.174237e-05	
367	6.500000e-01	5.523952e-05	
368	6.600000e-01	5.877293e-05	
369	6.700000e-01	6.233595e-05	
370	6.800000e-01	6.592270e-05	
371	6.900000e-01	6.952801e-05	
372	7.000000e-01	7.314740e-05	
373	7.100000e-01	7.677695e-05	
374	7.200000e-01	8.041326e-05	
375	7.300000e-01	8.405338e-05	
376	7.400000e-01	8.769476e-05	
377	7.500000e-01	9.133519e-05	
378	7.600000e-01	9.497278e-05	
379	7.700000e-01	9.860585e-05	
380	7.800000e-01	1.022330e-04	
381	7.900000e-01	1.058530e-04	
382	8.000000e-01	1.094647e-04	
383	8.100000e-01	1.130673e-04	
384	8.200000e-01	1.166599e-04	
385	8.300000e-01	1.202417e-04	
386	8.400000e-01	1.238123e-04	
387	8.500000e-01	1.273711e-04	
388	8.600000e-01	1.309175e-04	
389	8.700000e-01	1.344511e-04	
390	8.800000e-01	1.379716e-04	
391	8.900000e-01	1.414787e-04	
392	9.000000e-01	1.449721e-04	
393	9.100000e-01	1.484515e-04	
394	9.200000e-01	1.519166e-04	
395	9.300000e-01	1.553673e-04	
396	9.400000e-01	1.588033e-04	
397	9.500000e-01	1.622246e-04	
398	9.600000e-01	1.656309e-04	
399	9.700000e-01	1.690221e-04	
400	9.800000e-01	1.723981e-04	
401	9.900000e-01	1.757588e-04	
402	1.000000e+00	1.791040e-04	

Index   v-sweep         vs#branch       
--------------------------------------------------------------------------------
403	1.010000e+00	1.824336e-04	
404	1.020000e+00	1.857477e-04	
405	1.030000e+00	1.890460e-04	
406	1.040000e+00	1.923286e-04	
407	1.050000e+00	1.955952e-04	
408	1.060000e+00	1.988460e-04	
409	1.070000e+00	2.020808e-04	
410	1.080000e+00	2.052996e-04	
411	1.090000e+00	2.085022e-04	
412	1.100000e+00	2.116888e-04	
413	1.110000e+00	2.148592e-04	
414	1.120000e+00	2.180134e-04	
415	1.130000e+00	2.211513e-04	
416	1.140000e+00	2.242730e-04	
417	1.150000e+00	2.273783e-04	
418	1.160000e+00	2.304674e-04	
419	1.170000e+00	2.335401e-04	
420	1.180000e+00	2.365964e-04	
421	1.190000e+00	2.396364e-04	
422	1.200000e+00	2.426599e-04	
423	1.210000e+00	2.456671e-04	
424	1.220000e+00	2.486578e-04	
425	1.230000e+00	2.516321e-04	
426	1.240000e+00	2.545899e-04	
427	1.250000e+00	2.575314e-04	
428	1.260000e+00	2.604563e-04	
429	1.270000e+00	2.633649e-04	
430	1.280000e+00	2.662570e-04	
431	1.290000e+00	2.691326e-04	
432	1.300000e+00	2.719918e-04	
433	1.310000e+00	2.748346e-04	
434	1.320000e+00	2.776610e-04	
435	1.330000e+00	2.804709e-04	
436	1.340000e+00	2.832645e-04	
437	1.350000e+00	2.860417e-04	
438	1.360000e+00	2.888025e-04	
439	1.370000e+00	2.915469e-04	
440	1.380000e+00	2.942750e-04	
441	1.390000e+00	2.969868e-04	
442	1.400000e+00	2.996822e-04	
443	1.410000e+00	3.023614e-04	
444	1.420000e+00	3.050243e-04	
445	1.430000e+00	3.076710e-04	
446	1.440000e+00	3.103015e-04	
447	1.450000e+00	3.129157e-04	
448	1.460000e+00	3.155138e-04	
449	1.470000e+00	3.180958e-04	
450	1.480000e+00	3.206617e-04	
451	1.490000e+00	3.232114e-04	
452	1.500000e+00	3.257452e-04	
453	0.000000e+00	1.394691e-11	
454	1.000000e-02	1.846015e-11	
455	2.000000e-02	2.662913e-11	
456	3.000000e-02	3.678196e-11	
457	4.000000e-02	5.079150e-11	
458	5.000000e-02	7.011527e-11	
459	6.000000e-02	9.675755e-11	
460	7.000000e-02	1.334720e-10	

Index   v-sweep         vs#branch       
--------------------------------------------------------------------------------
461	8.000000e-02	1.840385e-10	
462	9.000000e-02	2.536393e-10	
463	1.000000e-01	3.493704e-10	
464	1.100000e-01	4.809346e-10	
465	1.200000e-01	6.615750e-10	
466	1.300000e-01	9.093331e-10	
467	1.400000e-01	1.248731e-09	
468	1.500000e-01	1.713011e-09	
469	1.600000e-01	2.347109e-09	
470	1.700000e-01	3.211553e-09	
471	1.800000e-01	4.387562e-09	
472	1.900000e-01	5.983636e-09	
473	2.000000e-01	8.143998e-09	
474	2.100000e-01	1.105928e-08	
475	2.200000e-01	1.497988e-08	
476	2.300000e-01	2.023239e-08	
477	2.400000e-01	2.723958e-08	
478	2.500000e-01	3.654419e-08	
479	2.600000e-01	4.883680e-08	
480	2.700000e-01	6.498795e-08	
481	2.800000e-01	8.608465e-08	
482	2.900000e-01	1.134711e-07	
483	3.000000e-01	1.487940e-07	
484	3.100000e-01	1.940529e-07	
485	3.200000e-01	2.516566e-07	
486	3.300000e-01	3.244861e-07	
487	3.400000e-01	4.159679e-07	
488	3.500000e-01	5.301580e-07	
489	3.600000e-01	6.718379e-07	
490	3.700000e-01	8.466230e-07	
491	3.800000e-01	1.061080e-06	
492	3.900000e-01	1.322842e-06	
493	4.000000e-01	1.640714e-06	
494	4.100000e-01	2.024740e-06	
495	4.200000e-01	2.486206e-06	
496	4.300000e-01	3.037558e-06	
497	4.400000e-01	3.692188e-06	
498	4.500000e-01	4.464072e-06	
499	4.600000e-01	5.367267e-06	
500	4.700000e-01	6.415259e-06	
501	4.800000e-01	7.620246e-06	
502	4.900000e-01	8.992417e-06	
503	5.000000e-01	1.053931e-05	
504	5.100000e-01	1.226539e-05	
505	5.200000e-01	1.417177e-05	
506	5.300000e-01	1.625631e-05	
507	5.400000e-01	1.851382e-05	
508	5.500000e-01	2.093652e-05	
509	5.600000e-01	2.351455e-05	
510	5.700000e-01	2.623658e-05	
511	5.800000e-01	2.909032e-05	
512	5.900000e-01	3.206308e-05	
513	6.000000e-01	3.514216e-05	
514	6.100000e-01	3.831518e-05	
515	6.200000e-01	4.157036e-05	
516	6.300000e-01	4.489669e-05	
517	6.400000e-01	4.828400e-05	
518	6.500000e-01	5.172305e-05	

Index   v-sweep         vs#branch       
--------------------------------------------------------------------------------
519	6.600000e-01	5.520548e-05	
520	6.700000e-01	5.872386e-05	
521	6.800000e-01	6.227158e-05	
522	6.900000e-01	6.584281e-05	
523	7.000000e-01	6.943244e-05	
524	7.100000e-01	7.303600e-05	
525	7.200000e-01	7.664961e-05	
526	7.300000e-01	8.026988e-05	
527	7.400000e-01	8.389387e-05	
528	7.500000e-01	8.751905e-05	
529	7.600000e-01	9.114323e-05	
530	7.700000e-01	9.476449e-05	
531	7.800000e-01	9.838119e-05	
532	7.900000e-01	1.019919e-04	
533	8.000000e-01	1.055954e-04	
534	8.100000e-01	1.091906e-04	
535	8.200000e-01	1.127766e-04	
536	8.300000e-01	1.163526e-04	
537	8.400000e-01	1.199178e-04	
538	8.500000e-01	1.234716e-04	
539	8.600000e-01	1.270136e-04	
540	8.700000e-01	1.305432e-04	
541	8.800000e-01	1.340600e-04	
542	8.900000e-01	1.375637e-04	
543	9.000000e-01	1.410539e-04	
544	9.100000e-01	1.445303e-04	
545	9.200000e-01	1.479927e-04	
546	9.300000e-01	1.514408e-04	
547	9.400000e-01	1.548744e-04	
548	9.500000e-01	1.582934e-04	
549	9.600000e-01	1.616976e-04	
550	9.700000e-01	1.650868e-04	
551	9.800000e-01	1.684608e-04	
552	9.900000e-01	1.718197e-04	
553	1.000000e+00	1.751631e-04	
554	1.010000e+00	1.784911e-04	
555	1.020000e+00	1.818036e-04	
556	1.030000e+00	1.851004e-04	
557	1.040000e+00	1.883815e-04	
558	1.050000e+00	1.916467e-04	
559	1.060000e+00	1.948962e-04	
560	1.070000e+00	1.981296e-04	
561	1.080000e+00	2.013472e-04	
562	1.090000e+00	2.045486e-04	
563	1.100000e+00	2.077340e-04	
564	1.110000e+00	2.109033e-04	
565	1.120000e+00	2.140564e-04	
566	1.130000e+00	2.171933e-04	
567	1.140000e+00	2.203140e-04	
568	1.150000e+00	2.234184e-04	
569	1.160000e+00	2.265065e-04	
570	1.170000e+00	2.295783e-04	
571	1.180000e+00	2.326338e-04	
572	1.190000e+00	2.356730e-04	
573	1.200000e+00	2.386957e-04	
574	1.210000e+00	2.417021e-04	
575	1.220000e+00	2.446921e-04	
576	1.230000e+00	2.476657e-04	

Index   v-sweep         vs#branch       
--------------------------------------------------------------------------------
577	1.240000e+00	2.506229e-04	
578	1.250000e+00	2.535637e-04	
579	1.260000e+00	2.564881e-04	
580	1.270000e+00	2.593960e-04	
581	1.280000e+00	2.622876e-04	
582	1.290000e+00	2.651627e-04	
583	1.300000e+00	2.680214e-04	
584	1.310000e+00	2.708638e-04	
585	1.320000e+00	2.736897e-04	
586	1.330000e+00	2.764993e-04	
587	1.340000e+00	2.792925e-04	
588	1.350000e+00	2.820693e-04	
589	1.360000e+00	2.848298e-04	
590	1.370000e+00	2.875739e-04	
591	1.380000e+00	2.903018e-04	
592	1.390000e+00	2.930133e-04	
593	1.400000e+00	2.957086e-04	
594	1.410000e+00	2.983876e-04	
595	1.420000e+00	3.010503e-04	
596	1.430000e+00	3.036969e-04	
597	1.440000e+00	3.063273e-04	
598	1.450000e+00	3.089415e-04	
599	1.460000e+00	3.115396e-04	
600	1.470000e+00	3.141215e-04	
601	1.480000e+00	3.166874e-04	
602	1.490000e+00	3.192372e-04	
603	1.500000e+00	3.217710e-04	
604	0.000000e+00	1.754769e-11	
605	1.000000e-02	2.311481e-11	
606	2.000000e-02	3.313622e-11	
607	3.000000e-02	4.555909e-11	
608	4.000000e-02	6.264591e-11	
609	5.000000e-02	8.613817e-11	
610	6.000000e-02	1.184225e-10	
611	7.000000e-02	1.627667e-10	
612	8.000000e-02	2.236405e-10	
613	9.000000e-02	3.071507e-10	
614	1.000000e-01	4.216291e-10	
615	1.100000e-01	5.784260e-10	
616	1.200000e-01	7.929764e-10	
617	1.300000e-01	1.086227e-09	
618	1.400000e-01	1.486537e-09	
619	1.500000e-01	2.032200e-09	
620	1.600000e-01	2.774763e-09	
621	1.700000e-01	3.783370e-09	
622	1.800000e-01	5.150401e-09	
623	1.900000e-01	6.998722e-09	
624	2.000000e-01	9.490909e-09	
625	2.100000e-01	1.284086e-08	
626	2.200000e-01	1.732819e-08	
627	2.300000e-01	2.331591e-08	
628	2.400000e-01	3.127163e-08	
629	2.500000e-01	4.179280e-08	
630	2.600000e-01	5.563606e-08	
631	2.700000e-01	7.375095e-08	
632	2.800000e-01	9.731799e-08	
633	2.900000e-01	1.277913e-07	
634	3.000000e-01	1.669460e-07	

Index   v-sweep         vs#branch       
--------------------------------------------------------------------------------
635	3.100000e-01	2.169310e-07	
636	3.200000e-01	2.803284e-07	
637	3.300000e-01	3.602206e-07	
638	3.400000e-01	4.602673e-07	
639	3.500000e-01	5.847947e-07	
640	3.600000e-01	7.388948e-07	
641	3.700000e-01	9.285377e-07	
642	3.800000e-01	1.160686e-06	
643	3.900000e-01	1.443408e-06	
644	4.000000e-01	1.785962e-06	
645	4.100000e-01	2.198846e-06	
646	4.200000e-01	2.693765e-06	
647	4.300000e-01	3.283499e-06	
648	4.400000e-01	3.981636e-06	
649	4.500000e-01	4.802161e-06	
650	4.600000e-01	5.758892e-06	
651	4.700000e-01	6.864813e-06	
652	4.800000e-01	8.131351e-06	
653	4.900000e-01	9.567693e-06	
654	5.000000e-01	1.118022e-05	
655	5.100000e-01	1.297214e-05	
656	5.200000e-01	1.494337e-05	
657	5.300000e-01	1.709066e-05	
658	5.400000e-01	1.940791e-05	
659	5.500000e-01	2.188661e-05	
660	5.600000e-01	2.451644e-05	
661	5.700000e-01	2.728577e-05	
662	5.800000e-01	3.018226e-05	
663	5.900000e-01	3.319328e-05	
664	6.000000e-01	3.630632e-05	
665	6.100000e-01	3.950927e-05	
666	6.200000e-01	4.279069e-05	
667	6.300000e-01	4.613990e-05	
668	6.400000e-01	4.954709e-05	
669	6.500000e-01	5.300336e-05	
670	6.600000e-01	5.650069e-05	
671	6.700000e-01	6.003195e-05	
672	6.800000e-01	6.359079e-05	
673	6.900000e-01	6.717163e-05	
674	7.000000e-01	7.076958e-05	
675	7.100000e-01	7.438036e-05	
676	7.200000e-01	7.800024e-05	
677	7.300000e-01	8.162598e-05	
678	7.400000e-01	8.525477e-05	
679	7.500000e-01	8.888417e-05	
680	7.600000e-01	9.251208e-05	
681	7.700000e-01	9.613665e-05	
682	7.800000e-01	9.975632e-05	
683	7.900000e-01	1.033697e-04	
684	8.000000e-01	1.069756e-04	
685	8.100000e-01	1.105730e-04	
686	8.200000e-01	1.141610e-04	
687	8.300000e-01	1.177388e-04	
688	8.400000e-01	1.213058e-04	
689	8.500000e-01	1.248613e-04	
690	8.600000e-01	1.284048e-04	
691	8.700000e-01	1.319358e-04	
692	8.800000e-01	1.354540e-04	

Index   v-sweep         vs#branch       
--------------------------------------------------------------------------------
693	8.900000e-01	1.389590e-04	
694	9.000000e-01	1.424504e-04	
695	9.100000e-01	1.459280e-04	
696	9.200000e-01	1.493916e-04	
697	9.300000e-01	1.528408e-04	
698	9.400000e-01	1.562756e-04	
699	9.500000e-01	1.596956e-04	
700	9.600000e-01	1.631008e-04	
701	9.700000e-01	1.664910e-04	
702	9.800000e-01	1.698661e-04	
703	9.900000e-01	1.732259e-04	
704	1.000000e+00	1.765704e-04	
705	1.010000e+00	1.798993e-04	
706	1.020000e+00	1.832127e-04	
707	1.030000e+00	1.865105e-04	
708	1.040000e+00	1.897925e-04	
709	1.050000e+00	1.930587e-04	
710	1.060000e+00	1.963090e-04	
711	1.070000e+00	1.995434e-04	
712	1.080000e+00	2.027618e-04	
713	1.090000e+00	2.059642e-04	
714	1.100000e+00	2.091504e-04	
715	1.110000e+00	2.123206e-04	
716	1.120000e+00	2.154745e-04	
717	1.130000e+00	2.186123e-04	
718	1.140000e+00	2.217338e-04	
719	1.150000e+00	2.248391e-04	
720	1.160000e+00	2.279280e-04	
721	1.170000e+00	2.310007e-04	
722	1.180000e+00	2.340570e-04	
723	1.190000e+00	2.370969e-04	
724	1.200000e+00	2.401205e-04	
725	1.210000e+00	2.431277e-04	
726	1.220000e+00	2.461184e-04	
727	1.230000e+00	2.490928e-04	
728	1.240000e+00	2.520508e-04	
729	1.250000e+00	2.549923e-04	
730	1.260000e+00	2.579175e-04	
731	1.270000e+00	2.608262e-04	
732	1.280000e+00	2.637185e-04	
733	1.290000e+00	2.665944e-04	
734	1.300000e+00	2.694538e-04	
735	1.310000e+00	2.722969e-04	
736	1.320000e+00	2.751235e-04	
737	1.330000e+00	2.779338e-04	
738	1.340000e+00	2.807277e-04	
739	1.350000e+00	2.835052e-04	
740	1.360000e+00	2.862663e-04	
741	1.370000e+00	2.890112e-04	
742	1.380000e+00	2.917397e-04	
743	1.390000e+00	2.944519e-04	
744	1.400000e+00	2.971478e-04	
745	1.410000e+00	2.998274e-04	
746	1.420000e+00	3.024908e-04	
747	1.430000e+00	3.051380e-04	
748	1.440000e+00	3.077690e-04	
749	1.450000e+00	3.103838e-04	
750	1.460000e+00	3.129824e-04	

Index   v-sweep         vs#branch       
--------------------------------------------------------------------------------
751	1.470000e+00	3.155650e-04	
752	1.480000e+00	3.181314e-04	
753	1.490000e+00	3.206818e-04	
754	1.500000e+00	3.232161e-04	
755	0.000000e+00	3.463674e-11	
756	1.000000e-02	4.717950e-11	
757	2.000000e-02	6.437258e-11	
758	3.000000e-02	8.793096e-11	
759	4.000000e-02	1.201972e-10	
760	5.000000e-02	1.643681e-10	
761	6.000000e-02	2.248026e-10	
762	7.000000e-02	3.074369e-10	
763	8.000000e-02	4.203452e-10	
764	9.000000e-02	5.744935e-10	
765	1.000000e-01	7.847505e-10	
766	1.100000e-01	1.071237e-09	
767	1.200000e-01	1.461121e-09	
768	1.300000e-01	1.990993e-09	
769	1.400000e-01	2.709990e-09	
770	1.500000e-01	3.683879e-09	
771	1.600000e-01	5.000357e-09	
772	1.700000e-01	6.775862e-09	
773	1.800000e-01	9.164250e-09	
774	1.900000e-01	1.236773e-08	
775	2.000000e-01	1.665046e-08	
776	2.100000e-01	2.235526e-08	
777	2.200000e-01	2.992382e-08	
778	2.300000e-01	3.992077e-08	
779	2.400000e-01	5.306190e-08	
780	2.500000e-01	7.024675e-08	
781	2.600000e-01	9.259568e-08	
782	2.700000e-01	1.214916e-07	
783	2.800000e-01	1.586265e-07	
784	2.900000e-01	2.060534e-07	
785	3.000000e-01	2.662449e-07	
786	3.100000e-01	3.421587e-07	
787	3.200000e-01	4.373131e-07	
788	3.300000e-01	5.558728e-07	
789	3.400000e-01	7.027467e-07	
790	3.500000e-01	8.836952e-07	
791	3.600000e-01	1.105445e-06	
792	3.700000e-01	1.375800e-06	
793	3.800000e-01	1.703734e-06	
794	3.900000e-01	2.099446e-06	
795	4.000000e-01	2.574350e-06	
796	4.100000e-01	3.140969e-06	
797	4.200000e-01	3.812702e-06	
798	4.300000e-01	4.603452e-06	
799	4.400000e-01	5.527108e-06	
800	4.500000e-01	6.596900e-06	
801	4.600000e-01	7.824699e-06	
802	4.700000e-01	9.220318e-06	
803	4.800000e-01	1.079092e-05	
804	4.900000e-01	1.254061e-05	
805	5.000000e-01	1.447022e-05	
806	5.100000e-01	1.657740e-05	
807	5.200000e-01	1.885687e-05	
808	5.300000e-01	2.130084e-05	

Index   v-sweep         vs#branch       
--------------------------------------------------------------------------------
809	5.400000e-01	2.389954e-05	
810	5.500000e-01	2.664175e-05	
811	5.600000e-01	2.951538e-05	
812	5.700000e-01	3.250792e-05	
813	5.800000e-01	3.560688e-05	
814	5.900000e-01	3.880005e-05	
815	6.000000e-01	4.207581e-05	
816	6.100000e-01	4.542328e-05	
817	6.200000e-01	4.883239e-05	
818	6.300000e-01	5.229396e-05	
819	6.400000e-01	5.579969e-05	
820	6.500000e-01	5.934216e-05	
821	6.600000e-01	6.291476e-05	
822	6.700000e-01	6.651166e-05	
823	6.800000e-01	7.012772e-05	
824	6.900000e-01	7.375843e-05	
825	7.000000e-01	7.739988e-05	
826	7.100000e-01	8.104863e-05	
827	7.200000e-01	8.470172e-05	
828	7.300000e-01	8.835657e-05	
829	7.400000e-01	9.201093e-05	
830	7.500000e-01	9.566286e-05	
831	7.600000e-01	9.931068e-05	
832	7.700000e-01	1.029529e-04	
833	7.800000e-01	1.065884e-04	
834	7.900000e-01	1.102158e-04	
835	8.000000e-01	1.138344e-04	
836	8.100000e-01	1.174433e-04	
837	8.200000e-01	1.210417e-04	
838	8.300000e-01	1.246290e-04	
839	8.400000e-01	1.282046e-04	
840	8.500000e-01	1.317681e-04	
841	8.600000e-01	1.353190e-04	
842	8.700000e-01	1.388570e-04	
843	8.800000e-01	1.423816e-04	
844	8.900000e-01	1.458927e-04	
845	9.000000e-01	1.493898e-04	
846	9.100000e-01	1.528729e-04	
847	9.200000e-01	1.563416e-04	
848	9.300000e-01	1.597957e-04	
849	9.400000e-01	1.632352e-04	
850	9.500000e-01	1.666598e-04	
851	9.600000e-01	1.700693e-04	
852	9.700000e-01	1.734637e-04	
853	9.800000e-01	1.768429e-04	
854	9.900000e-01	1.802066e-04	
855	1.000000e+00	1.835549e-04	
856	1.010000e+00	1.868876e-04	
857	1.020000e+00	1.902046e-04	
858	1.030000e+00	1.935058e-04	
859	1.040000e+00	1.967913e-04	
860	1.050000e+00	2.000609e-04	
861	1.060000e+00	2.033145e-04	
862	1.070000e+00	2.065521e-04	
863	1.080000e+00	2.097737e-04	
864	1.090000e+00	2.129791e-04	
865	1.100000e+00	2.161684e-04	
866	1.110000e+00	2.193415e-04	

Index   v-sweep         vs#branch       
--------------------------------------------------------------------------------
867	1.120000e+00	2.224984e-04	
868	1.130000e+00	2.256391e-04	
869	1.140000e+00	2.287634e-04	
870	1.150000e+00	2.318714e-04	
871	1.160000e+00	2.349631e-04	
872	1.170000e+00	2.380384e-04	
873	1.180000e+00	2.410973e-04	
874	1.190000e+00	2.441398e-04	
875	1.200000e+00	2.471659e-04	
876	1.210000e+00	2.501756e-04	
877	1.220000e+00	2.531688e-04	
878	1.230000e+00	2.561455e-04	
879	1.240000e+00	2.591058e-04	
880	1.250000e+00	2.620497e-04	
881	1.260000e+00	2.649771e-04	
882	1.270000e+00	2.678880e-04	
883	1.280000e+00	2.707824e-04	
884	1.290000e+00	2.736604e-04	
885	1.300000e+00	2.765219e-04	
886	1.310000e+00	2.793670e-04	
887	1.320000e+00	2.821956e-04	
888	1.330000e+00	2.850078e-04	
889	1.340000e+00	2.878035e-04	
890	1.350000e+00	2.905828e-04	
891	1.360000e+00	2.933458e-04	
892	1.370000e+00	2.960923e-04	
893	1.380000e+00	2.988225e-04	
894	1.390000e+00	3.015363e-04	
895	1.400000e+00	3.042338e-04	
896	1.410000e+00	3.069150e-04	
897	1.420000e+00	3.095799e-04	
898	1.430000e+00	3.122285e-04	
899	1.440000e+00	3.148609e-04	
900	1.450000e+00	3.174770e-04	
901	1.460000e+00	3.200770e-04	
902	1.470000e+00	3.226608e-04	
903	1.480000e+00	3.252284e-04	
904	1.490000e+00	3.277799e-04	
905	1.500000e+00	3.303154e-04	
906	0.000000e+00	1.045384e-10	
907	1.000000e-02	1.404399e-10	
908	2.000000e-02	1.893844e-10	
909	3.000000e-02	2.560736e-10	
910	4.000000e-02	3.468845e-10	
911	5.000000e-02	4.704551e-10	
912	6.000000e-02	6.384687e-10	
913	7.000000e-02	8.667021e-10	
914	8.000000e-02	1.176419e-09	
915	9.000000e-02	1.596215e-09	
916	1.000000e-01	2.164452e-09	
917	1.100000e-01	2.932448e-09	
918	1.200000e-01	3.968627e-09	
919	1.300000e-01	5.363896e-09	
920	1.400000e-01	7.238524e-09	
921	1.500000e-01	9.750897e-09	
922	1.600000e-01	1.310851e-08	
923	1.700000e-01	1.758161e-08	
924	1.800000e-01	2.352000e-08	

Index   v-sweep         vs#branch       
--------------------------------------------------------------------------------
925	1.900000e-01	3.137322e-08	
926	2.000000e-01	4.171477e-08	
927	2.100000e-01	5.527041e-08	
928	2.200000e-01	7.295098e-08	
929	2.300000e-01	9.588982e-08	
930	2.400000e-01	1.254851e-07	
931	2.500000e-01	1.634470e-07	
932	2.600000e-01	2.118512e-07	
933	2.700000e-01	2.731982e-07	
934	2.800000e-01	3.504810e-07	
935	2.900000e-01	4.472614e-07	
936	3.000000e-01	5.677581e-07	
937	3.100000e-01	7.169442e-07	
938	3.200000e-01	9.006563e-07	
939	3.300000e-01	1.125706e-06	
940	3.400000e-01	1.399992e-06	
941	3.500000e-01	1.732584e-06	
942	3.600000e-01	2.133780e-06	
943	3.700000e-01	2.615081e-06	
944	3.800000e-01	3.189086e-06	
945	3.900000e-01	3.869251e-06	
946	4.000000e-01	4.669510e-06	
947	4.100000e-01	5.603758e-06	
948	4.200000e-01	6.685210e-06	
949	4.300000e-01	7.925707e-06	
950	4.400000e-01	9.335025e-06	
951	4.500000e-01	1.092030e-05	
952	4.600000e-01	1.268561e-05	
953	4.700000e-01	1.463182e-05	
954	4.800000e-01	1.675661e-05	
955	4.900000e-01	1.905474e-05	
956	5.000000e-01	2.151851e-05	
957	5.100000e-01	2.413824e-05	
958	5.200000e-01	2.690280e-05	
959	5.300000e-01	2.980018e-05	
960	5.400000e-01	3.281794e-05	
961	5.500000e-01	3.594363e-05	
962	5.600000e-01	3.916507e-05	
963	5.700000e-01	4.247066e-05	
964	5.800000e-01	4.584949e-05	
965	5.900000e-01	4.929145e-05	
966	6.000000e-01	5.278732e-05	
967	6.100000e-01	5.632874e-05	
968	6.200000e-01	5.990821e-05	
969	6.300000e-01	6.351906e-05	
970	6.400000e-01	6.715537e-05	
971	6.500000e-01	7.081191e-05	
972	6.600000e-01	7.448413e-05	
973	6.700000e-01	7.816801e-05	
974	6.800000e-01	8.186006e-05	
975	6.900000e-01	8.555725e-05	
976	7.000000e-01	8.925692e-05	
977	7.100000e-01	9.295679e-05	
978	7.200000e-01	9.665486e-05	
979	7.300000e-01	1.003494e-04	
980	7.400000e-01	1.040389e-04	
981	7.500000e-01	1.077221e-04	
982	7.600000e-01	1.113977e-04	

Index   v-sweep         vs#branch       
--------------------------------------------------------------------------------
983	7.700000e-01	1.150650e-04	
984	7.800000e-01	1.187228e-04	
985	7.900000e-01	1.223706e-04	
986	8.000000e-01	1.260077e-04	
987	8.100000e-01	1.296334e-04	
988	8.200000e-01	1.332472e-04	
989	8.300000e-01	1.368488e-04	
990	8.400000e-01	1.404377e-04	
991	8.500000e-01	1.440135e-04	
992	8.600000e-01	1.475759e-04	
993	8.700000e-01	1.511247e-04	
994	8.800000e-01	1.546595e-04	
995	8.900000e-01	1.581802e-04	
996	9.000000e-01	1.616866e-04	
997	9.100000e-01	1.651784e-04	
998	9.200000e-01	1.686555e-04	
999	9.300000e-01	1.721177e-04	
1000	9.400000e-01	1.755649e-04	
1001	9.500000e-01	1.789970e-04	
1002	9.600000e-01	1.824138e-04	
1003	9.700000e-01	1.858152e-04	
1004	9.800000e-01	1.892012e-04	
1005	9.900000e-01	1.925716e-04	
1006	1.000000e+00	1.959263e-04	
1007	1.010000e+00	1.992653e-04	
1008	1.020000e+00	2.025885e-04	
1009	1.030000e+00	2.058958e-04	
1010	1.040000e+00	2.091871e-04	
1011	1.050000e+00	2.124624e-04	
1012	1.060000e+00	2.157217e-04	
1013	1.070000e+00	2.189649e-04	
1014	1.080000e+00	2.221918e-04	
1015	1.090000e+00	2.254026e-04	
1016	1.100000e+00	2.285972e-04	
1017	1.110000e+00	2.317754e-04	
1018	1.120000e+00	2.349373e-04	
1019	1.130000e+00	2.380829e-04	
1020	1.140000e+00	2.412121e-04	
1021	1.150000e+00	2.443249e-04	
1022	1.160000e+00	2.474213e-04	
1023	1.170000e+00	2.505012e-04	
1024	1.180000e+00	2.535646e-04	
1025	1.190000e+00	2.566115e-04	
1026	1.200000e+00	2.596420e-04	
1027	1.210000e+00	2.626559e-04	
1028	1.220000e+00	2.656533e-04	
1029	1.230000e+00	2.686342e-04	
1030	1.240000e+00	2.715985e-04	
1031	1.250000e+00	2.745463e-04	
1032	1.260000e+00	2.774776e-04	
1033	1.270000e+00	2.803922e-04	
1034	1.280000e+00	2.832904e-04	
1035	1.290000e+00	2.861720e-04	
1036	1.300000e+00	2.890371e-04	
1037	1.310000e+00	2.918856e-04	
1038	1.320000e+00	2.947176e-04	
1039	1.330000e+00	2.975331e-04	
1040	1.340000e+00	3.003320e-04	

Index   v-sweep         vs#branch       
--------------------------------------------------------------------------------
1041	1.350000e+00	3.031145e-04	
1042	1.360000e+00	3.058805e-04	
1043	1.370000e+00	3.086300e-04	
1044	1.380000e+00	3.113631e-04	
1045	1.390000e+00	3.140797e-04	
1046	1.400000e+00	3.167799e-04	
1047	1.410000e+00	3.194637e-04	
1048	1.420000e+00	3.221311e-04	
1049	1.430000e+00	3.247822e-04	
1050	1.440000e+00	3.274169e-04	
1051	1.450000e+00	3.300354e-04	
1052	1.460000e+00	3.326375e-04	
1053	1.470000e+00	3.352234e-04	
1054	1.480000e+00	3.377930e-04	
1055	1.490000e+00	3.403465e-04	
1056	1.500000e+00	3.428837e-04	
1057	0.000000e+00	4.795506e-10	
1058	1.000000e-02	6.196464e-10	
1059	2.000000e-02	8.091557e-10	
1060	3.000000e-02	1.065278e-09	
1061	4.000000e-02	1.411076e-09	
1062	5.000000e-02	1.877411e-09	
1063	6.000000e-02	2.505474e-09	
1064	7.000000e-02	3.350099e-09	
1065	8.000000e-02	4.484049e-09	
1066	9.000000e-02	6.003532e-09	
1067	1.000000e-01	8.035260e-09	
1068	1.100000e-01	1.074536e-08	
1069	1.200000e-01	1.435056e-08	
1070	1.300000e-01	1.913204e-08	
1071	1.400000e-01	2.545238e-08	
1072	1.500000e-01	3.377604e-08	
1073	1.600000e-01	4.469378e-08	
1074	1.700000e-01	5.895133e-08	
1075	1.800000e-01	7.748264e-08	
1076	1.900000e-01	1.014480e-07	
1077	2.000000e-01	1.322771e-07	
1078	2.100000e-01	1.717180e-07	
1079	2.200000e-01	2.218914e-07	
1080	2.300000e-01	2.853528e-07	
1081	2.400000e-01	3.651618e-07	
1082	2.500000e-01	4.649620e-07	
1083	2.600000e-01	5.890700e-07	
1084	2.700000e-01	7.425761e-07	
1085	2.800000e-01	9.314530e-07	
1086	2.900000e-01	1.162668e-06	
1087	3.000000e-01	1.444289e-06	
1088	3.100000e-01	1.785569e-06	
1089	3.200000e-01	2.196987e-06	
1090	3.300000e-01	2.690219e-06	
1091	3.400000e-01	3.278015e-06	
1092	3.500000e-01	3.973945e-06	
1093	3.600000e-01	4.792012e-06	
1094	3.700000e-01	5.746120e-06	
1095	3.800000e-01	6.849443e-06	
1096	3.900000e-01	8.113722e-06	
1097	4.000000e-01	9.548603e-06	
1098	4.100000e-01	1.116107e-05	

Index   v-sweep         vs#branch       
--------------------------------------------------------------------------------
1099	4.200000e-01	1.295505e-05	
1100	4.300000e-01	1.493128e-05	
1101	4.400000e-01	1.708735e-05	
1102	4.500000e-01	1.941797e-05	
1103	4.600000e-01	2.191543e-05	
1104	4.700000e-01	2.457007e-05	
1105	4.800000e-01	2.737081e-05	
1106	4.900000e-01	3.030571e-05	
1107	5.000000e-01	3.336239e-05	
1108	5.100000e-01	3.652846e-05	
1109	5.200000e-01	3.979178e-05	
1110	5.300000e-01	4.314078e-05	
1111	5.400000e-01	4.656455e-05	
1112	5.500000e-01	5.005299e-05	
1113	5.600000e-01	5.359684e-05	
1114	5.700000e-01	5.718771e-05	
1115	5.800000e-01	6.081804e-05	
1116	5.900000e-01	6.448109e-05	
1117	6.000000e-01	6.817088e-05	
1118	6.100000e-01	7.188214e-05	
1119	6.200000e-01	7.561020e-05	
1120	6.300000e-01	7.935101e-05	
1121	6.400000e-01	8.310101e-05	
1122	6.500000e-01	8.685708e-05	
1123	6.600000e-01	9.061652e-05	
1124	6.700000e-01	9.437698e-05	
1125	6.800000e-01	9.813641e-05	
1126	6.900000e-01	1.018930e-04	
1127	7.000000e-01	1.056453e-04	
1128	7.100000e-01	1.093918e-04	
1129	7.200000e-01	1.131315e-04	
1130	7.300000e-01	1.168633e-04	
1131	7.400000e-01	1.205862e-04	
1132	7.500000e-01	1.242996e-04	
1133	7.600000e-01	1.280027e-04	
1134	7.700000e-01	1.316948e-04	
1135	7.800000e-01	1.353756e-04	
1136	7.900000e-01	1.390444e-04	
1137	8.000000e-01	1.427010e-04	
1138	8.100000e-01	1.463448e-04	
1139	8.200000e-01	1.499756e-04	
1140	8.300000e-01	1.535930e-04	
1141	8.400000e-01	1.571969e-04	
1142	8.500000e-01	1.607868e-04	
1143	8.600000e-01	1.643627e-04	
1144	8.700000e-01	1.679244e-04	
1145	8.800000e-01	1.714715e-04	
1146	8.900000e-01	1.750041e-04	
1147	9.000000e-01	1.785218e-04	
1148	9.100000e-01	1.820246e-04	
1149	9.200000e-01	1.855123e-04	
1150	9.300000e-01	1.889849e-04	
1151	9.400000e-01	1.924421e-04	
1152	9.500000e-01	1.958840e-04	
1153	9.600000e-01	1.993103e-04	
1154	9.700000e-01	2.027210e-04	
1155	9.800000e-01	2.061161e-04	
1156	9.900000e-01	2.094954e-04	

Index   v-sweep         vs#branch       
--------------------------------------------------------------------------------
1157	1.000000e+00	2.128588e-04	
1158	1.010000e+00	2.162064e-04	
1159	1.020000e+00	2.195379e-04	
1160	1.030000e+00	2.228535e-04	
1161	1.040000e+00	2.261529e-04	
1162	1.050000e+00	2.294362e-04	
1163	1.060000e+00	2.327033e-04	
1164	1.070000e+00	2.359541e-04	
1165	1.080000e+00	2.391887e-04	
1166	1.090000e+00	2.424070e-04	
1167	1.100000e+00	2.456088e-04	
1168	1.110000e+00	2.487943e-04	
1169	1.120000e+00	2.519633e-04	
1170	1.130000e+00	2.551159e-04	
1171	1.140000e+00	2.582520e-04	
1172	1.150000e+00	2.613716e-04	
1173	1.160000e+00	2.644746e-04	
1174	1.170000e+00	2.675611e-04	
1175	1.180000e+00	2.706310e-04	
1176	1.190000e+00	2.736843e-04	
1177	1.200000e+00	2.767210e-04	
1178	1.210000e+00	2.797411e-04	
1179	1.220000e+00	2.827445e-04	
1180	1.230000e+00	2.857313e-04	
1181	1.240000e+00	2.887015e-04	
1182	1.250000e+00	2.916550e-04	
1183	1.260000e+00	2.945919e-04	
1184	1.270000e+00	2.975121e-04	
1185	1.280000e+00	3.004156e-04	
1186	1.290000e+00	3.033025e-04	
1187	1.300000e+00	3.061728e-04	
1188	1.310000e+00	3.090264e-04	
1189	1.320000e+00	3.118634e-04	
1190	1.330000e+00	3.146837e-04	
1191	1.340000e+00	3.174874e-04	
1192	1.350000e+00	3.202745e-04	
1193	1.360000e+00	3.230451e-04	
1194	1.370000e+00	3.257990e-04	
1195	1.380000e+00	3.285363e-04	
1196	1.390000e+00	3.312571e-04	
1197	1.400000e+00	3.339614e-04	
1198	1.410000e+00	3.366492e-04	
1199	1.420000e+00	3.393204e-04	
1200	1.430000e+00	3.419752e-04	
1201	1.440000e+00	3.446135e-04	
1202	1.450000e+00	3.472354e-04	
1203	1.460000e+00	3.498409e-04	
1204	1.470000e+00	3.524300e-04	
1205	1.480000e+00	3.550027e-04	
1206	1.490000e+00	3.575591e-04	
1207	1.500000e+00	3.600992e-04	
1208	0.000000e+00	3.964428e-09	
1209	1.000000e-02	4.609593e-09	
1210	2.000000e-02	5.472023e-09	
1211	3.000000e-02	6.623095e-09	
1212	4.000000e-02	8.156726e-09	
1213	5.000000e-02	1.019603e-08	
1214	6.000000e-02	1.290176e-08	

Index   v-sweep         vs#branch       
--------------------------------------------------------------------------------
1215	7.000000e-02	1.648280e-08	
1216	8.000000e-02	2.120931e-08	
1217	9.000000e-02	2.742865e-08	
1218	1.000000e-01	3.558485e-08	
1219	1.100000e-01	4.624181e-08	
1220	1.200000e-01	6.011071e-08	
1221	1.300000e-01	7.808208e-08	
1222	1.400000e-01	1.012627e-07	
1223	1.500000e-01	1.310179e-07	
1224	1.600000e-01	1.690196e-07	
1225	1.700000e-01	2.173002e-07	
1226	1.800000e-01	2.783144e-07	
1227	1.900000e-01	3.550087e-07	
1228	2.000000e-01	4.508997e-07	
1229	2.100000e-01	5.701636e-07	
1230	2.200000e-01	7.177351e-07	
1231	2.300000e-01	8.994153e-07	
1232	2.400000e-01	1.121983e-06	
1233	2.500000e-01	1.393303e-06	
1234	2.600000e-01	1.722410e-06	
1235	2.700000e-01	2.119565e-06	
1236	2.800000e-01	2.596235e-06	
1237	2.900000e-01	3.164994e-06	
1238	3.000000e-01	3.839298e-06	
1239	3.100000e-01	4.633133e-06	
1240	3.200000e-01	5.560519e-06	
1241	3.300000e-01	6.634904e-06	
1242	3.400000e-01	7.868491e-06	
1243	3.500000e-01	9.271556e-06	
1244	3.600000e-01	1.085187e-05	
1245	3.700000e-01	1.261427e-05	
1246	3.800000e-01	1.456043e-05	
1247	3.900000e-01	1.668888e-05	
1248	4.000000e-01	1.899525e-05	
1249	4.100000e-01	2.147258e-05	
1250	4.200000e-01	2.411187e-05	
1251	4.300000e-01	2.690254e-05	
1252	4.400000e-01	2.983300e-05	
1253	4.500000e-01	3.289107e-05	
1254	4.600000e-01	3.606442e-05	
1255	4.700000e-01	3.934088e-05	
1256	4.800000e-01	4.270873e-05	
1257	4.900000e-01	4.615685e-05	
1258	5.000000e-01	4.967486e-05	
1259	5.100000e-01	5.325320e-05	
1260	5.200000e-01	5.688315e-05	
1261	5.300000e-01	6.055682e-05	
1262	5.400000e-01	6.426712e-05	
1263	5.500000e-01	6.800776e-05	
1264	5.600000e-01	7.177314e-05	
1265	5.700000e-01	7.555832e-05	
1266	5.800000e-01	7.935896e-05	
1267	5.900000e-01	8.317123e-05	
1268	6.000000e-01	8.699182e-05	
1269	6.100000e-01	9.081781e-05	
1270	6.200000e-01	9.464666e-05	
1271	6.300000e-01	9.847615e-05	
1272	6.400000e-01	1.023043e-04	

Index   v-sweep         vs#branch       
--------------------------------------------------------------------------------
1273	6.500000e-01	1.061296e-04	
1274	6.600000e-01	1.099504e-04	
1275	6.700000e-01	1.137654e-04	
1276	6.800000e-01	1.175737e-04	
1277	6.900000e-01	1.213741e-04	
1278	7.000000e-01	1.251658e-04	
1279	7.100000e-01	1.289481e-04	
1280	7.200000e-01	1.327204e-04	
1281	7.300000e-01	1.364819e-04	
1282	7.400000e-01	1.402322e-04	
1283	7.500000e-01	1.439708e-04	
1284	7.600000e-01	1.476974e-04	
1285	7.700000e-01	1.514114e-04	
1286	7.800000e-01	1.551127e-04	
1287	7.900000e-01	1.588009e-04	
1288	8.000000e-01	1.624758e-04	
1289	8.100000e-01	1.661370e-04	
1290	8.200000e-01	1.697844e-04	
1291	8.300000e-01	1.734177e-04	
1292	8.400000e-01	1.770368e-04	
1293	8.500000e-01	1.806415e-04	
1294	8.600000e-01	1.842316e-04	
1295	8.700000e-01	1.878070e-04	
1296	8.800000e-01	1.913676e-04	
1297	8.900000e-01	1.949131e-04	
1298	9.000000e-01	1.984436e-04	
1299	9.100000e-01	2.019588e-04	
1300	9.200000e-01	2.054586e-04	
1301	9.300000e-01	2.089431e-04	
1302	9.400000e-01	2.124120e-04	
1303	9.500000e-01	2.158652e-04	
1304	9.600000e-01	2.193028e-04	
1305	9.700000e-01	2.227246e-04	
1306	9.800000e-01	2.261306e-04	
1307	9.900000e-01	2.295206e-04	
1308	1.000000e+00	2.328946e-04	
1309	1.010000e+00	2.362526e-04	
1310	1.020000e+00	2.395944e-04	
1311	1.030000e+00	2.429201e-04	
1312	1.040000e+00	2.462296e-04	
1313	1.050000e+00	2.495227e-04	
1314	1.060000e+00	2.527996e-04	
1315	1.070000e+00	2.560601e-04	
1316	1.080000e+00	2.593041e-04	
1317	1.090000e+00	2.625318e-04	
1318	1.100000e+00	2.657429e-04	
1319	1.110000e+00	2.689375e-04	
1320	1.120000e+00	2.721156e-04	
1321	1.130000e+00	2.752771e-04	
1322	1.140000e+00	2.784220e-04	
1323	1.150000e+00	2.815503e-04	
1324	1.160000e+00	2.846619e-04	
1325	1.170000e+00	2.877568e-04	
1326	1.180000e+00	2.908351e-04	
1327	1.190000e+00	2.938966e-04	
1328	1.200000e+00	2.969414e-04	
1329	1.210000e+00	2.999695e-04	
1330	1.220000e+00	3.029808e-04	

Index   v-sweep         vs#branch       
--------------------------------------------------------------------------------
1331	1.230000e+00	3.059754e-04	
1332	1.240000e+00	3.089532e-04	
1333	1.250000e+00	3.119142e-04	
1334	1.260000e+00	3.148585e-04	
1335	1.270000e+00	3.177860e-04	
1336	1.280000e+00	3.206967e-04	
1337	1.290000e+00	3.235906e-04	
1338	1.300000e+00	3.264678e-04	
1339	1.310000e+00	3.293282e-04	
1340	1.320000e+00	3.321718e-04	
1341	1.330000e+00	3.349986e-04	
1342	1.340000e+00	3.378087e-04	
1343	1.350000e+00	3.406021e-04	
1344	1.360000e+00	3.433787e-04	
1345	1.370000e+00	3.461387e-04	
1346	1.380000e+00	3.488819e-04	
1347	1.390000e+00	3.516084e-04	
1348	1.400000e+00	3.543182e-04	
1349	1.410000e+00	3.570114e-04	
1350	1.420000e+00	3.596880e-04	
1351	1.430000e+00	3.623479e-04	
1352	1.440000e+00	3.649912e-04	
1353	1.450000e+00	3.676180e-04	
1354	1.460000e+00	3.702282e-04	
1355	1.470000e+00	3.728219e-04	
1356	1.480000e+00	3.753991e-04	
1357	1.490000e+00	3.779598e-04	
1358	1.500000e+00	3.805040e-04	




