
Circuit: * test-agauss-2, agauss parameter correlation

Doing analysis at TEMP = 27.000000 and TNOM = 27.000000


No. of Data Rows : 1
INFO: success
ngspice-26 done
