Circuit: isrc-pwl-1

Doing analysis at TEMP = 27.000000 and TNOM = 27.000000


No. of Data Rows : 571

Circuit: check-vsrc

checking vv1
info: hit at 0
info: hit at 1E-08
info: hit at 1.1E-08
info: hit at 1.7E-08
info: hit at 1.8E-08
info: breakpoint seem to be ok


Circuit: check-vsrc

checking vv2
info: hit at 1.5E-08
info: hit at 2.5E-08
info: hit at 2.6E-08
info: hit at 3.2E-08
info: hit at 3.3E-08
info: breakpoint seem to be ok


Circuit: check-vsrc

checking vv3
info: hit at 0
info: hit at 1E-08
info: hit at 1.1E-08
info: hit at 1.7E-08
info: hit at 3E-08
info: hit at 3.1E-08
info: hit at 3.7E-08
info: hit at 5E-08
info: hit at 5.1E-08
info: hit at 5.7E-08
info: hit at 7E-08
info: hit at 7.1E-08
info: hit at 7.7E-08
info: hit at 9E-08
info: hit at 9.1E-08
info: hit at 9.7E-08
info: breakpoint seem to be ok

Doing analysis at TEMP = 27.000000 and TNOM = 27.000000
