Warning: no nodes given: .print vids#branch

Circuit: * Mesa Test

