
Circuit: * Mesa Level 2 test

Doing analysis at TEMP = 300.150000 and TNOM = 300.150000
	Node                                  Voltage
	----                                  -------
	----	-------
	V(3)                             0.000000e+00
	V(2)                             0.000000e+00
	V(1)                             0.000000e+00

	Source	Current
	------	-------

	vds#branch                       0.000000e+00
	vids#branch                      0.000000e+00
	vgs#branch                       0.000000e+00

 MESA models (GaAs MESFET model)
      model                mesmod

       type                   pmf
        vto                 -1.26
     lambda                 0.045
   lambdahf                 0.045
       beta                0.0085
         vs                150000
         rd                     0
         rs                     0
         rg                     0
         ri                     0
         rf                     0
        rdi                     0
        rsi                     0
       phib           8.01096e-20
      phib1                     0
      tphib                     0
      astar                 40000
        ggr                    40
        del                  0.04
       xchi                 0.033
       tggr                 0.033
          n                     1
        eta                  1.73
          m                   2.5
         mc                     3
      alpha                     0
     sigma0                 0.081
    vsigmat                  1.01
     vsigma                   0.1
         mu                  0.23
      theta                     0
        mu1                     0
        mu2                     0
          d               1.2e-07
         nd                 2e+23
         du               3.5e-08
        ndu                 1e+22
         th                 1e-08
     ndelta                 6e+24
      delta                     5
         tc                     0
       tvto                     0
     alphat                     0
    tlambda          1.79769e+308
      teta0          1.79769e+308
      teta1                     0
        tmu                300.15
       xtm0                     0
       xtm1                     0
       xtm2                     0
         ks                     0
        vsg                     0
         tf                300.15
        flo                     0
      delfo                     0
         ag                     0
       rtc1                     0
       rtc2                     0
       zeta                     1
      level                     2
       nmax                 2e+16
      gamma                     3
       epsi           1.08411e-10
        cas                     1
        cbs                     1
         gd          2.51987e-312
         gs          2.51987e-312
      vcrit          2.51987e-312

 MESA: GaAs MESFET model
     device                    z1
      model                mesmod
        off                     0
          l                 1e-06
          w                 2e-05
          m                     1
      icvds                     0
      icvgs                     0
         td                    27
         ts                    27
      dtemp                     0
      dnode                     2
      gnode                     3
      snode                     0
 dprimenode                     2
 sprimenode                     0
 gprimenode                     3
        vgs                     0
        vgd                     0
         cg                     0
         cd                     0
        cgd                     0
         gm                     0
        gds            0.00641271
        ggs           6.40329e-09
        ggd           6.40329e-09
        qgs           1.52287e-14
       cqgs                     0
        qgd           1.52287e-14
       cqgd                     0
         cs                    -0
          p                     0

 Vsource: Independent voltage source
     device                   vgs                  vids                   vds
         dc                     0                     0                     0
      acmag                     0                     0                     0
          i                     0                     0                     0
          p                    -0                    -0                    -0

                              * Mesa Level 2 test
                              DC transfer characteristic  Sat Aug 27 16:29:59  2005
--------------------------------------------------------------------------------
Index   v-sweep         vids#branch     
--------------------------------------------------------------------------------
0	0.000000e+00	6.287335e-09	
1	5.000000e-02	8.247766e-06	
2	1.000000e-01	9.608412e-06	
3	1.500000e-01	1.042152e-05	
4	2.000000e-01	1.119220e-05	
5	2.500000e-01	1.198395e-05	
6	3.000000e-01	1.281268e-05	
7	3.500000e-01	1.368463e-05	
8	4.000000e-01	1.460330e-05	
9	4.500000e-01	1.557114e-05	
10	5.000000e-01	1.659018e-05	
11	5.500000e-01	1.766219e-05	
12	6.000000e-01	1.878878e-05	
13	6.500000e-01	1.997145e-05	
14	7.000000e-01	2.121159e-05	
15	7.500000e-01	2.251051e-05	
16	8.000000e-01	2.386942e-05	
17	8.500000e-01	2.528944e-05	
18	9.000000e-01	2.677159e-05	
19	9.500000e-01	2.831681e-05	
20	1.000000e+00	2.992592e-05	
21	1.050000e+00	3.159969e-05	
22	1.100000e+00	3.333876e-05	
23	1.150000e+00	3.514371e-05	
24	1.200000e+00	3.701500e-05	
25	1.250000e+00	3.895303e-05	
26	1.300000e+00	4.095811e-05	
27	1.350000e+00	4.303049e-05	
28	1.400000e+00	4.517034e-05	
29	1.450000e+00	4.737775e-05	
30	1.500000e+00	4.965278e-05	
31	1.550000e+00	5.199542e-05	
32	1.600000e+00	5.440564e-05	
33	1.650000e+00	5.688333e-05	
34	1.700000e+00	5.942841e-05	
35	1.750000e+00	6.204072e-05	
36	1.800000e+00	6.472013e-05	
37	1.850000e+00	6.746649e-05	
38	1.900000e+00	7.027964e-05	
39	1.950000e+00	7.315944e-05	
40	2.000000e+00	7.610576e-05	
41	0.000000e+00	2.351178e-09	
42	5.000000e-02	1.018087e-04	
43	1.000000e-01	1.847282e-04	
44	1.500000e-01	2.386501e-04	
45	2.000000e-01	2.712839e-04	
46	2.500000e-01	2.921130e-04	
47	3.000000e-01	3.067955e-04	
48	3.500000e-01	3.182098e-04	
49	4.000000e-01	3.278093e-04	
50	4.500000e-01	3.363569e-04	
51	5.000000e-01	3.442738e-04	
52	5.500000e-01	3.518038e-04	
53	6.000000e-01	3.590950e-04	
54	6.500000e-01	3.662405e-04	

Index   v-sweep         vids#branch     
--------------------------------------------------------------------------------
55	7.000000e-01	3.733014e-04	
56	7.500000e-01	3.803188e-04	
57	8.000000e-01	3.873212e-04	
58	8.500000e-01	3.943289e-04	
59	9.000000e-01	4.013566e-04	
60	9.500000e-01	4.084152e-04	
61	1.000000e+00	4.155130e-04	
62	1.050000e+00	4.226565e-04	
63	1.100000e+00	4.298504e-04	
64	1.150000e+00	4.370990e-04	
65	1.200000e+00	4.444052e-04	
66	1.250000e+00	4.517719e-04	
67	1.300000e+00	4.592011e-04	
68	1.350000e+00	4.666948e-04	
69	1.400000e+00	4.742544e-04	
70	1.450000e+00	4.818814e-04	
71	1.500000e+00	4.895770e-04	
72	1.550000e+00	4.973421e-04	
73	1.600000e+00	5.051779e-04	
74	1.650000e+00	5.130851e-04	
75	1.700000e+00	5.210646e-04	
76	1.750000e+00	5.291171e-04	
77	1.800000e+00	5.372433e-04	
78	1.850000e+00	5.454439e-04	
79	1.900000e+00	5.537195e-04	
80	1.950000e+00	5.620708e-04	
81	2.000000e+00	5.704982e-04	
82	0.000000e+00	7.393328e-10	
83	5.000000e-02	2.028727e-04	
84	1.000000e-01	3.953294e-04	
85	1.500000e-01	5.615118e-04	
86	2.000000e-01	6.933551e-04	
87	2.500000e-01	7.926170e-04	
88	3.000000e-01	8.660732e-04	
89	3.500000e-01	9.209439e-04	
90	4.000000e-01	9.629829e-04	
91	4.500000e-01	9.962679e-04	
92	5.000000e-01	1.023556e-03	
93	5.500000e-01	1.046686e-03	
94	6.000000e-01	1.066890e-03	
95	6.500000e-01	1.085002e-03	
96	7.000000e-01	1.101595e-03	
97	7.500000e-01	1.117072e-03	
98	8.000000e-01	1.131718e-03	
99	8.500000e-01	1.145739e-03	
100	9.000000e-01	1.159289e-03	
101	9.500000e-01	1.172479e-03	
102	1.000000e+00	1.185396e-03	
103	1.050000e+00	1.198106e-03	
104	1.100000e+00	1.210659e-03	
105	1.150000e+00	1.223096e-03	
106	1.200000e+00	1.235447e-03	
107	1.250000e+00	1.247739e-03	
108	1.300000e+00	1.259991e-03	
109	1.350000e+00	1.272221e-03	
110	1.400000e+00	1.284441e-03	
111	1.450000e+00	1.296664e-03	
112	1.500000e+00	1.308898e-03	

Index   v-sweep         vids#branch     
--------------------------------------------------------------------------------
113	1.550000e+00	1.321152e-03	
114	1.600000e+00	1.333432e-03	
115	1.650000e+00	1.345744e-03	
116	1.700000e+00	1.358093e-03	
117	1.750000e+00	1.370482e-03	
118	1.800000e+00	1.382916e-03	
119	1.850000e+00	1.395398e-03	
120	1.900000e+00	1.407930e-03	
121	1.950000e+00	1.420515e-03	
122	2.000000e+00	1.433155e-03	
123	0.000000e+00	7.163208e-25	
124	5.000000e-02	3.203183e-04	
125	1.000000e-01	6.320067e-04	
126	1.500000e-01	9.201977e-04	
127	2.000000e-01	1.172110e-03	
128	2.500000e-01	1.381625e-03	
129	3.000000e-01	1.549618e-03	
130	3.500000e-01	1.681428e-03	
131	4.000000e-01	1.783965e-03	
132	4.500000e-01	1.863838e-03	
133	5.000000e-01	1.926569e-03	
134	5.500000e-01	1.976453e-03	
135	6.000000e-01	2.016720e-03	
136	6.500000e-01	2.049754e-03	
137	7.000000e-01	2.077307e-03	
138	7.500000e-01	2.100670e-03	
139	8.000000e-01	2.120796e-03	
140	8.500000e-01	2.138397e-03	
141	9.000000e-01	2.154010e-03	
142	9.500000e-01	2.168042e-03	
143	1.000000e+00	2.180803e-03	
144	1.050000e+00	2.192537e-03	
145	1.100000e+00	2.203432e-03	
146	1.150000e+00	2.213637e-03	
147	1.200000e+00	2.223270e-03	
148	1.250000e+00	2.232427e-03	
149	1.300000e+00	2.241184e-03	
150	1.350000e+00	2.249604e-03	
151	1.400000e+00	2.257737e-03	
152	1.450000e+00	2.265627e-03	
153	1.500000e+00	2.273307e-03	
154	1.550000e+00	2.280808e-03	
155	1.600000e+00	2.288153e-03	
156	1.650000e+00	2.295363e-03	
157	1.700000e+00	2.302457e-03	
158	1.750000e+00	2.309448e-03	
159	1.800000e+00	2.316350e-03	
160	1.850000e+00	2.323173e-03	
161	1.900000e+00	2.329927e-03	
162	1.950000e+00	2.336620e-03	
163	2.000000e+00	2.343260e-03	

CPU time since last call: 0.020 seconds.

Total CPU time: 0.020 seconds.

Current dynamic memory usage = 135168,
Dynamic memory limit = -491521.

