Warning: no nodes given: .print vig#branch

Circuit: * MESA1 - Gate Leakage Test 

